data_IRMOF10_SG202_interpen_Ligand8cp_label_q.

_audit_creation_method             'generated by an auxiliary program of Tobunporous'

_symmetry_space_group_name_H-M     'P 1'
_symmetry_Int_Tables_number        1
_symmetry_cell_setting             triclinic

_cell_length_a                    34.2800
_cell_length_b                    34.2800
_cell_length_c                    34.2800
_cell_angle_alpha                 90.0000
_cell_angle_beta                  90.0000
_cell_angle_gamma                 90.0000

loop_
_atom_site_label
_atom_site_fract_x
_atom_site_fract_y
_atom_site_fract_z
_atom_site_occupancy
O1       0.75000    0.75000    0.75000   1.00
Zn1      0.71720    0.78280    0.78280   1.00
Zn1      0.78280    0.71720    0.78280   1.00
Zn1      0.78280    0.78280    0.71720   1.00
Zn1      0.71720    0.71720    0.71720   1.00
O2       0.72650    0.77350    0.83820   1.00
O2       0.72650    0.83820    0.77350   1.00
O2       0.66180    0.77350    0.77350   1.00
O2       0.77350    0.72650    0.83820   1.00
O2       0.83820    0.72650    0.77350   1.00
O2       0.77350    0.66180    0.77350   1.00
O2       0.77350    0.83820    0.72650   1.00
O2       0.83820    0.77350    0.72650   1.00
O2       0.77350    0.77350    0.66180   1.00
O2       0.66180    0.72650    0.72650   1.00
O2       0.72650    0.66180    0.72650   1.00
O2       0.72650    0.72650    0.66180   1.00
C1       0.75000    0.75000    0.85520   1.00
C1       0.75000    0.85520    0.75000   1.00
C1       0.64480    0.75000    0.75000   1.00
C1       0.85520    0.75000    0.75000   1.00
C1       0.75000    0.64480    0.75000   1.00
C1       0.75000    0.75000    0.64480   1.00
O1       0.25000    0.25000    0.75000   1.00
Zn1      0.21720    0.28280    0.78280   1.00
Zn1      0.28280    0.21720    0.78280   1.00
Zn1      0.28280    0.28280    0.71720   1.00
Zn1      0.21720    0.21720    0.71720   1.00
O2       0.22650    0.27350    0.83820   1.00
O2       0.22650    0.33820    0.77350   1.00
O2       0.16180    0.27350    0.77350   1.00
O2       0.27350    0.22650    0.83820   1.00
O2       0.33820    0.22650    0.77350   1.00
O2       0.27350    0.16180    0.77350   1.00
O2       0.27350    0.33820    0.72650   1.00
O2       0.33820    0.27350    0.72650   1.00
O2       0.27350    0.27350    0.66180   1.00
O2       0.16180    0.22650    0.72650   1.00
O2       0.22650    0.16180    0.72650   1.00
O2       0.22650    0.22650    0.66180   1.00
C1       0.25000    0.25000    0.85520   1.00
C1       0.25000    0.35520    0.75000   1.00
C1       0.14480    0.25000    0.75000   1.00
C1       0.35520    0.25000    0.75000   1.00
C1       0.25000    0.14480    0.75000   1.00
C1       0.25000    0.25000    0.64480   1.00
O1       0.25000    0.75000    0.25000   1.00
Zn1      0.21720    0.78280    0.28280   1.00
Zn1      0.28280    0.71720    0.28280   1.00
Zn1      0.28280    0.78280    0.21720   1.00
Zn1      0.21720    0.71720    0.21720   1.00
O2       0.22650    0.77350    0.33820   1.00
O2       0.22650    0.83820    0.27350   1.00
O2       0.16180    0.77350    0.27350   1.00
O2       0.27350    0.72650    0.33820   1.00
O2       0.33820    0.72650    0.27350   1.00
O2       0.27350    0.66180    0.27350   1.00
O2       0.27350    0.83820    0.22650   1.00
O2       0.33820    0.77350    0.22650   1.00
O2       0.27350    0.77350    0.16180   1.00
O2       0.16180    0.72650    0.22650   1.00
O2       0.22650    0.66180    0.22650   1.00
O2       0.22650    0.72650    0.16180   1.00
C1       0.25000    0.75000    0.35520   1.00
C1       0.25000    0.85520    0.25000   1.00
C1       0.14480    0.75000    0.25000   1.00
C1       0.35520    0.75000    0.25000   1.00
C1       0.25000    0.64480    0.25000   1.00
C1       0.25000    0.75000    0.14480   1.00
O1       0.75000    0.25000    0.25000   1.00
Zn1      0.71720    0.28280    0.28280   1.00
Zn1      0.78280    0.21720    0.28280   1.00
Zn1      0.78280    0.28280    0.21720   1.00
Zn1      0.71720    0.21720    0.21720   1.00
O2       0.72650    0.27350    0.33820   1.00
O2       0.72650    0.33820    0.27350   1.00
O2       0.66180    0.27350    0.27350   1.00
O2       0.77350    0.22650    0.33820   1.00
O2       0.83820    0.22650    0.27350   1.00
O2       0.77350    0.16180    0.27350   1.00
O2       0.77350    0.33820    0.22650   1.00
O2       0.83820    0.27350    0.22650   1.00
O2       0.77350    0.27350    0.16180   1.00
O2       0.66180    0.22650    0.22650   1.00
O2       0.72650    0.16180    0.22650   1.00
O2       0.72650    0.22650    0.16180   1.00
C1       0.75000    0.25000    0.35520   1.00
C1       0.75000    0.35520    0.25000   1.00
C1       0.64480    0.25000    0.25000   1.00
C1       0.85520    0.25000    0.25000   1.00
C1       0.75000    0.14480    0.25000   1.00
C1       0.75000    0.25000    0.14480   1.00
O1       0.25000    0.25000    0.25000   1.00
Zn1      0.28280    0.21720    0.21720   1.00
Zn1      0.21720    0.28280    0.21720   1.00
Zn1      0.21720    0.21720    0.28280   1.00
Zn1      0.28280    0.28280    0.28280   1.00
O2       0.27350    0.22650    0.16180   1.00
O2       0.27350    0.16180    0.22650   1.00
O2       0.33820    0.22650    0.22650   1.00
O2       0.22650    0.27350    0.16180   1.00
O2       0.16180    0.27350    0.22650   1.00
O2       0.22650    0.33820    0.22650   1.00
O2       0.22650    0.16180    0.27350   1.00
O2       0.16180    0.22650    0.27350   1.00
O2       0.22650    0.22650    0.33820   1.00
O2       0.33820    0.27350    0.27350   1.00
O2       0.27350    0.33820    0.27350   1.00
O2       0.27350    0.27350    0.33820   1.00
C1       0.25000    0.25000    0.14480   1.00
C1       0.25000    0.14480    0.25000   1.00
C1       0.35520    0.25000    0.25000   1.00
C1       0.14480    0.25000    0.25000   1.00
C1       0.25000    0.35520    0.25000   1.00
C1       0.25000    0.25000    0.35520   1.00
O1       0.75000    0.75000    0.25000   1.00
Zn1      0.78280    0.71720    0.21720   1.00
Zn1      0.71720    0.78280    0.21720   1.00
Zn1      0.71720    0.71720    0.28280   1.00
Zn1      0.78280    0.78280    0.28280   1.00
O2       0.77350    0.72650    0.16180   1.00
O2       0.77350    0.66180    0.22650   1.00
O2       0.83820    0.72650    0.22650   1.00
O2       0.72650    0.77350    0.16180   1.00
O2       0.66180    0.77350    0.22650   1.00
O2       0.72650    0.83820    0.22650   1.00
O2       0.72650    0.66180    0.27350   1.00
O2       0.66180    0.72650    0.27350   1.00
O2       0.72650    0.72650    0.33820   1.00
O2       0.83820    0.77350    0.27350   1.00
O2       0.77350    0.83820    0.27350   1.00
O2       0.77350    0.77350    0.33820   1.00
C1       0.75000    0.75000    0.14480   1.00
C1       0.75000    0.64480    0.25000   1.00
C1       0.85520    0.75000    0.25000   1.00
C1       0.64480    0.75000    0.25000   1.00
C1       0.75000    0.85520    0.25000   1.00
C1       0.75000    0.75000    0.35520   1.00
O1       0.75000    0.25000    0.75000   1.00
Zn1      0.78280    0.21720    0.71720   1.00
Zn1      0.71720    0.28280    0.71720   1.00
Zn1      0.71720    0.21720    0.78280   1.00
Zn1      0.78280    0.28280    0.78280   1.00
O2       0.77350    0.22650    0.66180   1.00
O2       0.77350    0.16180    0.72650   1.00
O2       0.83820    0.22650    0.72650   1.00
O2       0.72650    0.27350    0.66180   1.00
O2       0.66180    0.27350    0.72650   1.00
O2       0.72650    0.33820    0.72650   1.00
O2       0.72650    0.16180    0.77350   1.00
O2       0.66180    0.22650    0.77350   1.00
O2       0.72650    0.22650    0.83820   1.00
O2       0.83820    0.27350    0.77350   1.00
O2       0.77350    0.33820    0.77350   1.00
O2       0.77350    0.27350    0.83820   1.00
C1       0.75000    0.25000    0.64480   1.00
C1       0.75000    0.14480    0.75000   1.00
C1       0.85520    0.25000    0.75000   1.00
C1       0.64480    0.25000    0.75000   1.00
C1       0.75000    0.35520    0.75000   1.00
C1       0.75000    0.25000    0.85520   1.00
O1       0.25000    0.75000    0.75000   1.00
Zn1      0.28280    0.71720    0.71720   1.00
Zn1      0.21720    0.78280    0.71720   1.00
Zn1      0.21720    0.71720    0.78280   1.00
Zn1      0.28280    0.78280    0.78280   1.00
O2       0.27350    0.72650    0.66180   1.00
O2       0.27350    0.66180    0.72650   1.00
O2       0.33820    0.72650    0.72650   1.00
O2       0.22650    0.77350    0.66180   1.00
O2       0.16180    0.77350    0.72650   1.00
O2       0.22650    0.83820    0.72650   1.00
O2       0.22650    0.66180    0.77350   1.00
O2       0.16180    0.72650    0.77350   1.00
O2       0.22650    0.72650    0.83820   1.00
O2       0.33820    0.77350    0.77350   1.00
O2       0.27350    0.83820    0.77350   1.00
O2       0.27350    0.77350    0.83820   1.00
C1       0.25000    0.75000    0.64480   1.00
C1       0.25000    0.64480    0.75000   1.00
C1       0.35520    0.75000    0.75000   1.00
C1       0.14480    0.75000    0.75000   1.00
C1       0.25000    0.85520    0.75000   1.00
C1       0.25000    0.75000    0.85520   1.00
O1       0.91500    0.91500    0.91500   1.00
Zn1      0.88220    0.94780    0.94780   1.00
Zn1      0.94780    0.88220    0.94780   1.00
Zn1      0.94780    0.94780    0.88220   1.00
Zn1      0.88220    0.88220    0.88220   1.00
O2       0.89150    0.93850    1.00320   1.00
O2       0.89150    1.00320    0.93850   1.00
O2       0.82680    0.93850    0.93850   1.00
O2       0.93850    0.89150    1.00320   1.00
O2       1.00320    0.89150    0.93850   1.00
O2       0.93850    0.82680    0.93850   1.00
O2       0.93850    1.00320    0.89150   1.00
O2       1.00320    0.93850    0.89150   1.00
O2       0.93850    0.93850    0.82680   1.00
O2       0.82680    0.89150    0.89150   1.00
O2       0.89150    0.82680    0.89150   1.00
O2       0.89150    0.89150    0.82680   1.00
C1       0.91500    0.91500    1.02020   1.00
C1       0.91500    1.02020    0.91500   1.00
C1       0.80980    0.91500    0.91500   1.00
C1       1.02020    0.91500    0.91500   1.00
C1       0.91500    0.80980    0.91500   1.00
C1       0.91500    0.91500    0.80980   1.00
O1       0.41500    0.41500    0.91500   1.00
Zn1      0.38220    0.44780    0.94780   1.00
Zn1      0.44780    0.38220    0.94780   1.00
Zn1      0.44780    0.44780    0.88220   1.00
Zn1      0.38220    0.38220    0.88220   1.00
O2       0.39150    0.43850    1.00320   1.00
O2       0.39150    0.50320    0.93850   1.00
O2       0.32680    0.43850    0.93850   1.00
O2       0.43850    0.39150    1.00320   1.00
O2       0.50320    0.39150    0.93850   1.00
O2       0.43850    0.32680    0.93850   1.00
O2       0.43850    0.50320    0.89150   1.00
O2       0.50320    0.43850    0.89150   1.00
O2       0.43850    0.43850    0.82680   1.00
O2       0.32680    0.39150    0.89150   1.00
O2       0.39150    0.32680    0.89150   1.00
O2       0.39150    0.39150    0.82680   1.00
C1       0.41500    0.41500    1.02020   1.00
C1       0.41500    0.52020    0.91500   1.00
C1       0.30980    0.41500    0.91500   1.00
C1       0.52020    0.41500    0.91500   1.00
C1       0.41500    0.30980    0.91500   1.00
C1       0.41500    0.41500    0.80980   1.00
O1       0.41500    0.91500    0.41500   1.00
Zn1      0.38220    0.94780    0.44780   1.00
Zn1      0.44780    0.88220    0.44780   1.00
Zn1      0.44780    0.94780    0.38220   1.00
Zn1      0.38220    0.88220    0.38220   1.00
O2       0.39150    0.93850    0.50320   1.00
O2       0.39150    1.00320    0.43850   1.00
O2       0.32680    0.93850    0.43850   1.00
O2       0.43850    0.89150    0.50320   1.00
O2       0.50320    0.89150    0.43850   1.00
O2       0.43850    0.82680    0.43850   1.00
O2       0.43850    1.00320    0.39150   1.00
O2       0.50320    0.93850    0.39150   1.00
O2       0.43850    0.93850    0.32680   1.00
O2       0.32680    0.89150    0.39150   1.00
O2       0.39150    0.82680    0.39150   1.00
O2       0.39150    0.89150    0.32680   1.00
C1       0.41500    0.91500    0.52020   1.00
C1       0.41500    1.02020    0.41500   1.00
C1       0.30980    0.91500    0.41500   1.00
C1       0.52020    0.91500    0.41500   1.00
C1       0.41500    0.80980    0.41500   1.00
C1       0.41500    0.91500    0.30980   1.00
O1       0.91500    0.41500    0.41500   1.00
Zn1      0.88220    0.44780    0.44780   1.00
Zn1      0.94780    0.38220    0.44780   1.00
Zn1      0.94780    0.44780    0.38220   1.00
Zn1      0.88220    0.38220    0.38220   1.00
O2       0.89150    0.43850    0.50320   1.00
O2       0.89150    0.50320    0.43850   1.00
O2       0.82680    0.43850    0.43850   1.00
O2       0.93850    0.39150    0.50320   1.00
O2       1.00320    0.39150    0.43850   1.00
O2       0.93850    0.32680    0.43850   1.00
O2       0.93850    0.50320    0.39150   1.00
O2       1.00320    0.43850    0.39150   1.00
O2       0.93850    0.43850    0.32680   1.00
O2       0.82680    0.39150    0.39150   1.00
O2       0.89150    0.32680    0.39150   1.00
O2       0.89150    0.39150    0.32680   1.00
C1       0.91500    0.41500    0.52020   1.00
C1       0.91500    0.52020    0.41500   1.00
C1       0.80980    0.41500    0.41500   1.00
C1       1.02020    0.41500    0.41500   1.00
C1       0.91500    0.30980    0.41500   1.00
C1       0.91500    0.41500    0.30980   1.00
O1       0.41500    0.41500    0.41500   1.00
Zn1      0.44780    0.38220    0.38220   1.00
Zn1      0.38220    0.44780    0.38220   1.00
Zn1      0.38220    0.38220    0.44780   1.00
Zn1      0.44780    0.44780    0.44780   1.00
O2       0.43850    0.39150    0.32680   1.00
O2       0.43850    0.32680    0.39150   1.00
O2       0.50320    0.39150    0.39150   1.00
O2       0.39150    0.43850    0.32680   1.00
O2       0.32680    0.43850    0.39150   1.00
O2       0.39150    0.50320    0.39150   1.00
O2       0.39150    0.32680    0.43850   1.00
O2       0.32680    0.39150    0.43850   1.00
O2       0.39150    0.39150    0.50320   1.00
O2       0.50320    0.43850    0.43850   1.00
O2       0.43850    0.50320    0.43850   1.00
O2       0.43850    0.43850    0.50320   1.00
C1       0.41500    0.41500    0.30980   1.00
C1       0.41500    0.30980    0.41500   1.00
C1       0.52020    0.41500    0.41500   1.00
C1       0.30980    0.41500    0.41500   1.00
C1       0.41500    0.52020    0.41500   1.00
C1       0.41500    0.41500    0.52020   1.00
O1       0.91500    0.91500    0.41500   1.00
Zn1      0.94780    0.88220    0.38220   1.00
Zn1      0.88220    0.94780    0.38220   1.00
Zn1      0.88220    0.88220    0.44780   1.00
Zn1      0.94780    0.94780    0.44780   1.00
O2       0.93850    0.89150    0.32680   1.00
O2       0.93850    0.82680    0.39150   1.00
O2       1.00320    0.89150    0.39150   1.00
O2       0.89150    0.93850    0.32680   1.00
O2       0.82680    0.93850    0.39150   1.00
O2       0.89150    1.00320    0.39150   1.00
O2       0.89150    0.82680    0.43850   1.00
O2       0.82680    0.89150    0.43850   1.00
O2       0.89150    0.89150    0.50320   1.00
O2       1.00320    0.93850    0.43850   1.00
O2       0.93850    1.00320    0.43850   1.00
O2       0.93850    0.93850    0.50320   1.00
C1       0.91500    0.91500    0.30980   1.00
C1       0.91500    0.80980    0.41500   1.00
C1       1.02020    0.91500    0.41500   1.00
C1       0.80980    0.91500    0.41500   1.00
C1       0.91500    1.02020    0.41500   1.00
C1       0.91500    0.91500    0.52020   1.00
O1       0.91500    0.41500    0.91500   1.00
Zn1      0.94780    0.38220    0.88220   1.00
Zn1      0.88220    0.44780    0.88220   1.00
Zn1      0.88220    0.38220    0.94780   1.00
Zn1      0.94780    0.44780    0.94780   1.00
O2       0.93850    0.39150    0.82680   1.00
O2       0.93850    0.32680    0.89150   1.00
O2       1.00320    0.39150    0.89150   1.00
O2       0.89150    0.43850    0.82680   1.00
O2       0.82680    0.43850    0.89150   1.00
O2       0.89150    0.50320    0.89150   1.00
O2       0.89150    0.32680    0.93850   1.00
O2       0.82680    0.39150    0.93850   1.00
O2       0.89150    0.39150    1.00320   1.00
O2       1.00320    0.43850    0.93850   1.00
O2       0.93850    0.50320    0.93850   1.00
O2       0.93850    0.43850    1.00320   1.00
C1       0.91500    0.41500    0.80980   1.00
C1       0.91500    0.30980    0.91500   1.00
C1       1.02020    0.41500    0.91500   1.00
C1       0.80980    0.41500    0.91500   1.00
C1       0.91500    0.52020    0.91500   1.00
C1       0.91500    0.41500    1.02020   1.00
O1       0.41500    0.91500    0.91500   1.00
Zn1      0.44780    0.88220    0.88220   1.00
Zn1      0.38220    0.94780    0.88220   1.00
Zn1      0.38220    0.88220    0.94780   1.00
Zn1      0.44780    0.94780    0.94780   1.00
O2       0.43850    0.89150    0.82680   1.00
O2       0.43850    0.82680    0.89150   1.00
O2       0.50320    0.89150    0.89150   1.00
O2       0.39150    0.93850    0.82680   1.00
O2       0.32680    0.93850    0.89150   1.00
O2       0.39150    1.00320    0.89150   1.00
O2       0.39150    0.82680    0.93850   1.00
O2       0.32680    0.89150    0.93850   1.00
O2       0.39150    0.89150    1.00320   1.00
O2       0.50320    0.93850    0.93850   1.00
O2       0.43850    1.00320    0.93850   1.00
O2       0.43850    0.93850    1.00320   1.00
C1       0.41500    0.91500    0.80980   1.00
C1       0.41500    0.80980    0.91500   1.00
C1       0.52020    0.91500    0.91500   1.00
C1       0.30980    0.91500    0.91500   1.00
C1       0.41500    1.02020    0.91500   1.00
C1       0.41500    0.91500    1.02020   1.00
C4       0.74995    0.74992    0.97915   1.00
C4       0.75005    0.75008    1.02085   1.00
C3       0.75958    0.71649    0.95708   1.00
C3       0.71494    0.74763    1.04225   1.00
C3       0.73995    0.78396    0.95816   1.00
C3a      0.78554    0.75219    1.04263   1.00
C2       0.74990    0.75150    0.89483   1.00
C2       0.74978    0.74855    1.10517   1.00
C3       0.75956    0.71734    0.91566   1.00
C3       0.71487    0.74686    1.08359   1.00
C3       0.74010    0.78477    0.91680   1.00
C3       0.78484    0.75126    1.08415   1.00
H1       0.76718    0.68966    0.97192   1.00
H1       0.68738    0.74601    1.02685   1.00
H1       0.76717    0.69119    0.89968   1.00
H1       0.68734    0.74486    1.09895   1.00
H1       0.73279    0.81158    0.90179   1.00
H1       0.81186    0.75300    1.10043   1.00
C5       0.82460    0.75628    1.02239   1.00
H1       0.73299    0.81039    0.97401   1.00
H2       0.84903    0.75350    1.04354   1.00
H2       0.82817    0.73215    1.00103   1.00
N1       0.82763    0.79417    1.00292   1.00
C6       0.82504    0.82940    1.02012   1.00
C6       0.83390    0.80015    0.96460   1.00
C6       0.82933    0.85827    0.99243   1.00
C6       0.83496    0.83966    0.95711   1.00
H3       0.82006    0.83397    1.05099   1.00
H3       0.83705    0.77722    0.94309   1.00
H3       0.82850    0.88941    0.99741   1.00
H3       0.83930    0.85335    0.92903   1.00
C4       0.74992    0.97915    0.74995   1.00
C4       0.75008    1.02085    0.75005   1.00
C3       0.71649    0.95708    0.75958   1.00
C3       0.74763    1.04225    0.71494   1.00
C3       0.78396    0.95816    0.73995   1.00
C3a      0.75219    1.04263    0.78554   1.00
C2       0.75150    0.89483    0.74990   1.00
C2       0.74855    1.10517    0.74978   1.00
C3       0.71734    0.91566    0.75956   1.00
C3       0.74686    1.08359    0.71487   1.00
C3       0.78477    0.91680    0.74010   1.00
C3       0.75126    1.08415    0.78484   1.00
H1       0.68966    0.97192    0.76718   1.00
H1       0.74601    1.02685    0.68738   1.00
H1       0.69119    0.89968    0.76717   1.00
H1       0.74486    1.09895    0.68734   1.00
H1       0.81158    0.90179    0.73279   1.00
H1       0.75300    1.10043    0.81186   1.00
C5       0.75628    1.02239    0.82460   1.00
H1       0.81039    0.97401    0.73299   1.00
H2       0.75350    1.04354    0.84903   1.00
H2       0.73215    1.00103    0.82817   1.00
N1       0.79417    1.00292    0.82763   1.00
C6       0.82940    1.02012    0.82504   1.00
C6       0.80015    0.96460    0.83390   1.00
C6       0.85827    0.99243    0.82933   1.00
C6       0.83966    0.95711    0.83496   1.00
H3       0.83397    1.05099    0.82006   1.00
H3       0.77722    0.94309    0.83705   1.00
H3       0.88941    0.99741    0.82850   1.00
H3       0.85335    0.92903    0.83930   1.00
C4       0.52085    0.74995    0.75008   1.00
C4       0.47915    0.75005    0.74992   1.00
C3       0.54292    0.75958    0.78351   1.00
C3       0.45775    0.71494    0.75237   1.00
C3       0.54184    0.73995    0.71604   1.00
C3a      0.45737    0.78554    0.74781   1.00
C2       0.60517    0.74990    0.74850   1.00
C2       0.39483    0.74978    0.75145   1.00
C3       0.58434    0.75956    0.78266   1.00
C3       0.41641    0.71487    0.75314   1.00
C3       0.58320    0.74010    0.71523   1.00
C3       0.41585    0.78484    0.74874   1.00
H1       0.52808    0.76718    0.81034   1.00
H1       0.47315    0.68738    0.75399   1.00
H1       0.60032    0.76717    0.80881   1.00
H1       0.40105    0.68734    0.75514   1.00
H1       0.59821    0.73279    0.68842   1.00
H1       0.39957    0.81186    0.74700   1.00
C5       0.47761    0.82460    0.74372   1.00
H1       0.52599    0.73299    0.68961   1.00
H2       0.45646    0.84903    0.74650   1.00
H2       0.49897    0.82817    0.76785   1.00
N1       0.49708    0.82763    0.70583   1.00
C6       0.47988    0.82504    0.67060   1.00
C6       0.53540    0.83390    0.69985   1.00
C6       0.50757    0.82933    0.64173   1.00
C6       0.54289    0.83496    0.66034   1.00
H3       0.44901    0.82006    0.66603   1.00
H3       0.55691    0.83705    0.72278   1.00
H3       0.50259    0.82850    0.61059   1.00
H3       0.57097    0.83930    0.64665   1.00
C4       0.97915    0.74995    0.74992   1.00
C4       1.02085    0.75005    0.75008   1.00
C3       0.95708    0.75958    0.71649   1.00
C3       1.04225    0.71494    0.74763   1.00
C3       0.95816    0.73995    0.78396   1.00
C3a      1.04263    0.78554    0.75219   1.00
C2       0.89483    0.74990    0.75150   1.00
C2       1.10517    0.74978    0.74855   1.00
C3       0.91566    0.75956    0.71734   1.00
C3       1.08359    0.71487    0.74686   1.00
C3       0.91680    0.74010    0.78477   1.00
C3       1.08415    0.78484    0.75126   1.00
H1       0.97192    0.76718    0.68966   1.00
H1       1.02685    0.68738    0.74601   1.00
H1       0.89968    0.76717    0.69119   1.00
H1       1.09895    0.68734    0.74486   1.00
H1       0.90179    0.73279    0.81158   1.00
H1       1.10043    0.81186    0.75300   1.00
C5       1.02239    0.82460    0.75628   1.00
H1       0.97401    0.73299    0.81039   1.00
H2       1.04354    0.84903    0.75350   1.00
H2       1.00103    0.82817    0.73215   1.00
N1       1.00292    0.82763    0.79417   1.00
C6       1.02012    0.82504    0.82940   1.00
C6       0.96460    0.83390    0.80015   1.00
C6       0.99243    0.82933    0.85827   1.00
C6       0.95711    0.83496    0.83966   1.00
H3       1.05099    0.82006    0.83397   1.00
H3       0.94309    0.83705    0.77722   1.00
H3       0.99741    0.82850    0.88941   1.00
H3       0.92903    0.83930    0.85335   1.00
C4       0.75008    0.52085    0.74995   1.00
C4       0.74992    0.47915    0.75005   1.00
C3       0.78351    0.54292    0.75958   1.00
C3       0.75237    0.45775    0.71494   1.00
C3       0.71604    0.54184    0.73995   1.00
C3a      0.74781    0.45737    0.78554   1.00
C2       0.74850    0.60517    0.74990   1.00
C2       0.75145    0.39483    0.74978   1.00
C3       0.78266    0.58434    0.75956   1.00
C3       0.75314    0.41641    0.71487   1.00
C3       0.71523    0.58320    0.74010   1.00
C3       0.74874    0.41585    0.78484   1.00
H1       0.81034    0.52808    0.76718   1.00
H1       0.75399    0.47315    0.68738   1.00
H1       0.80881    0.60032    0.76717   1.00
H1       0.75514    0.40105    0.68734   1.00
H1       0.68842    0.59821    0.73279   1.00
H1       0.74700    0.39957    0.81186   1.00
C5       0.74372    0.47761    0.82460   1.00
H1       0.68961    0.52599    0.73299   1.00
H2       0.74650    0.45646    0.84903   1.00
H2       0.76785    0.49897    0.82817   1.00
N1       0.70583    0.49708    0.82763   1.00
C6       0.67060    0.47988    0.82504   1.00
C6       0.69985    0.53540    0.83390   1.00
C6       0.64173    0.50757    0.82933   1.00
C6       0.66034    0.54289    0.83496   1.00
H3       0.66603    0.44901    0.82006   1.00
H3       0.72278    0.55691    0.83705   1.00
H3       0.61059    0.50259    0.82850   1.00
H3       0.64665    0.57097    0.83930   1.00
C4       0.74995    0.75008    0.52085   1.00
C4       0.75005    0.74992    0.47915   1.00
C3       0.75958    0.78351    0.54292   1.00
C3       0.71494    0.75237    0.45775   1.00
C3       0.73995    0.71604    0.54184   1.00
C3a      0.78554    0.74781    0.45737   1.00
C2       0.74990    0.74850    0.60517   1.00
C2       0.74978    0.75145    0.39483   1.00
C3       0.75956    0.78266    0.58434   1.00
C3       0.71487    0.75314    0.41641   1.00
C3       0.74010    0.71523    0.58320   1.00
C3       0.78484    0.74874    0.41585   1.00
H1       0.76718    0.81034    0.52808   1.00
H1       0.68738    0.75399    0.47315   1.00
H1       0.76717    0.80881    0.60032   1.00
H1       0.68734    0.75514    0.40105   1.00
H1       0.73279    0.68842    0.59821   1.00
H1       0.81186    0.74700    0.39957   1.00
C5       0.82460    0.74372    0.47761   1.00
H1       0.73299    0.68961    0.52599   1.00
H2       0.84903    0.74650    0.45646   1.00
H2       0.82817    0.76785    0.49897   1.00
N1       0.82763    0.70583    0.49708   1.00
C6       0.82504    0.67060    0.47988   1.00
C6       0.83390    0.69985    0.53540   1.00
C6       0.82933    0.64173    0.50757   1.00
C6       0.83496    0.66034    0.54289   1.00
H3       0.82006    0.66603    0.44901   1.00
H3       0.83705    0.72278    0.55691   1.00
H3       0.82850    0.61059    0.50259   1.00
H3       0.83930    0.64665    0.57097   1.00
C4       0.24995    0.24992    0.97915   1.00
C4       0.25005    0.25008    1.02085   1.00
C3       0.25958    0.21649    0.95708   1.00
C3       0.21494    0.24763    1.04225   1.00
C3       0.23995    0.28396    0.95816   1.00
C3a      0.28554    0.25219    1.04263   1.00
C2       0.24990    0.25150    0.89483   1.00
C2       0.24978    0.24855    1.10517   1.00
C3       0.25956    0.21734    0.91566   1.00
C3       0.21487    0.24686    1.08359   1.00
C3       0.24010    0.28477    0.91680   1.00
C3       0.28484    0.25126    1.08415   1.00
H1       0.26718    0.18966    0.97192   1.00
H1       0.18738    0.24601    1.02685   1.00
H1       0.26717    0.19119    0.89968   1.00
H1       0.18734    0.24486    1.09895   1.00
H1       0.23279    0.31158    0.90179   1.00
H1       0.31186    0.25300    1.10043   1.00
C5       0.32460    0.25628    1.02239   1.00
H1       0.23299    0.31039    0.97401   1.00
H2       0.34903    0.25350    1.04354   1.00
H2       0.32817    0.23215    1.00103   1.00
N1       0.32763    0.29417    1.00292   1.00
C6       0.32504    0.32940    1.02012   1.00
C6       0.33390    0.30015    0.96460   1.00
C6       0.32933    0.35827    0.99243   1.00
C6       0.33496    0.33966    0.95711   1.00
H3       0.32006    0.33397    1.05099   1.00
H3       0.33705    0.27722    0.94309   1.00
H3       0.32850    0.38941    0.99741   1.00
H3       0.33930    0.35335    0.92903   1.00
C4       0.24992    0.47915    0.74995   1.00
C4       0.25008    0.52085    0.75005   1.00
C3       0.21649    0.45708    0.75958   1.00
C3       0.24763    0.54225    0.71494   1.00
C3       0.28396    0.45816    0.73995   1.00
C3a      0.25219    0.54263    0.78554   1.00
C2       0.25150    0.39483    0.74990   1.00
C2       0.24855    0.60517    0.74978   1.00
C3       0.21734    0.41566    0.75956   1.00
C3       0.24686    0.58359    0.71487   1.00
C3       0.28477    0.41680    0.74010   1.00
C3       0.25126    0.58415    0.78484   1.00
H1       0.18966    0.47192    0.76718   1.00
H1       0.24601    0.52685    0.68738   1.00
H1       0.19119    0.39968    0.76717   1.00
H1       0.24486    0.59895    0.68734   1.00
H1       0.31158    0.40179    0.73279   1.00
H1       0.25300    0.60043    0.81186   1.00
C5       0.25628    0.52239    0.82460   1.00
H1       0.31039    0.47401    0.73299   1.00
H2       0.25350    0.54354    0.84903   1.00
H2       0.23215    0.50103    0.82817   1.00
N1       0.29417    0.50292    0.82763   1.00
C6       0.32940    0.52012    0.82504   1.00
C6       0.30015    0.46460    0.83390   1.00
C6       0.35827    0.49243    0.82933   1.00
C6       0.33966    0.45711    0.83496   1.00
H3       0.33397    0.55099    0.82006   1.00
H3       0.27722    0.44309    0.83705   1.00
H3       0.38941    0.49741    0.82850   1.00
H3       0.35335    0.42903    0.83930   1.00
C4       0.02085    0.24995    0.75008   1.00
C4       -0.02085   0.25005    0.74992   1.00
C3       0.04292    0.25958    0.78351   1.00
C3       -0.04225   0.21494    0.75237   1.00
C3       0.04184    0.23995    0.71604   1.00
C3a      -0.04263   0.28554    0.74781   1.00
C2       0.10517    0.24990    0.74850   1.00
C2       -0.10517   0.24978    0.75145   1.00
C3       0.08434    0.25956    0.78266   1.00
C3       -0.08359   0.21487    0.75314   1.00
C3       0.08320    0.24010    0.71523   1.00
C3       -0.08415   0.28484    0.74874   1.00
H1       0.02808    0.26718    0.81034   1.00
H1       -0.02685   0.18738    0.75399   1.00
H1       0.10032    0.26717    0.80881   1.00
H1       -0.09895   0.18734    0.75514   1.00
H1       0.09821    0.23279    0.68842   1.00
H1       -0.10043   0.31186    0.74700   1.00
C5       -0.02239   0.32460    0.74372   1.00
H1       0.02599    0.23299    0.68961   1.00
H2       -0.04354   0.34903    0.74650   1.00
H2       -0.00103   0.32817    0.76785   1.00
N1       -0.00292   0.32763    0.70583   1.00
C6       -0.02012   0.32504    0.67060   1.00
C6       0.03540    0.33390    0.69985   1.00
C6       0.00757    0.32933    0.64173   1.00
C6       0.04289    0.33496    0.66034   1.00
H3       -0.05099   0.32006    0.66603   1.00
H3       0.05691    0.33705    0.72278   1.00
H3       0.00259    0.32850    0.61059   1.00
H3       0.07097    0.33930    0.64665   1.00
C4       0.47915    0.24995    0.74992   1.00
C4       0.52085    0.25005    0.75008   1.00
C3       0.45708    0.25958    0.71649   1.00
C3       0.54225    0.21494    0.74763   1.00
C3       0.45816    0.23995    0.78396   1.00
C3a      0.54263    0.28554    0.75219   1.00
C2       0.39483    0.24990    0.75150   1.00
C2       0.60517    0.24978    0.74855   1.00
C3       0.41566    0.25956    0.71734   1.00
C3       0.58359    0.21487    0.74686   1.00
C3       0.41680    0.24010    0.78477   1.00
C3       0.58415    0.28484    0.75126   1.00
H1       0.47192    0.26718    0.68966   1.00
H1       0.52685    0.18738    0.74601   1.00
H1       0.39968    0.26717    0.69119   1.00
H1       0.59895    0.18734    0.74486   1.00
H1       0.40179    0.23279    0.81158   1.00
H1       0.60043    0.31186    0.75300   1.00
C5       0.52239    0.32460    0.75628   1.00
H1       0.47401    0.23299    0.81039   1.00
H2       0.54354    0.34903    0.75350   1.00
H2       0.50103    0.32817    0.73215   1.00
N1       0.50292    0.32763    0.79417   1.00
C6       0.52012    0.32504    0.82940   1.00
C6       0.46460    0.33390    0.80015   1.00
C6       0.49243    0.32933    0.85827   1.00
C6       0.45711    0.33496    0.83966   1.00
H3       0.55099    0.32006    0.83397   1.00
H3       0.44309    0.33705    0.77722   1.00
H3       0.49741    0.32850    0.88941   1.00
H3       0.42903    0.33930    0.85335   1.00
C4       0.25008    0.02085    0.74995   1.00
C4       0.24992    -0.02085   0.75005   1.00
C3       0.28351    0.04292    0.75958   1.00
C3       0.25237    -0.04225   0.71494   1.00
C3       0.21604    0.04184    0.73995   1.00
C3a      0.24781    -0.04263   0.78554   1.00
C2       0.24850    0.10517    0.74990   1.00
C2       0.25145    -0.10517   0.74978   1.00
C3       0.28266    0.08434    0.75956   1.00
C3       0.25314    -0.08359   0.71487   1.00
C3       0.21523    0.08320    0.74010   1.00
C3       0.24874    -0.08415   0.78484   1.00
H1       0.31034    0.02808    0.76718   1.00
H1       0.25399    -0.02685   0.68738   1.00
H1       0.30881    0.10032    0.76717   1.00
H1       0.25514    -0.09895   0.68734   1.00
H1       0.18842    0.09821    0.73279   1.00
H1       0.24700    -0.10043   0.81186   1.00
C5       0.24372    -0.02239   0.82460   1.00
H1       0.18961    0.02599    0.73299   1.00
H2       0.24650    -0.04354   0.84903   1.00
H2       0.26785    -0.00103   0.82817   1.00
N1       0.20583    -0.00292   0.82763   1.00
C6       0.17060    -0.02012   0.82504   1.00
C6       0.19985    0.03540    0.83390   1.00
C6       0.14173    0.00757    0.82933   1.00
C6       0.16034    0.04289    0.83496   1.00
H3       0.16603    -0.05099   0.82006   1.00
H3       0.22278    0.05691    0.83705   1.00
H3       0.11059    0.00259    0.82850   1.00
H3       0.14665    0.07097    0.83930   1.00
C4       0.24995    0.25008    0.52085   1.00
C4       0.25005    0.24992    0.47915   1.00
C3       0.25958    0.28351    0.54292   1.00
C3       0.21494    0.25237    0.45775   1.00
C3       0.23995    0.21604    0.54184   1.00
C3a      0.28554    0.24781    0.45737   1.00
C2       0.24990    0.24850    0.60517   1.00
C2       0.24978    0.25145    0.39483   1.00
C3       0.25956    0.28266    0.58434   1.00
C3       0.21487    0.25314    0.41641   1.00
C3       0.24010    0.21523    0.58320   1.00
C3       0.28484    0.24874    0.41585   1.00
H1       0.26718    0.31034    0.52808   1.00
H1       0.18738    0.25399    0.47315   1.00
H1       0.26717    0.30881    0.60032   1.00
H1       0.18734    0.25514    0.40105   1.00
H1       0.23279    0.18842    0.59821   1.00
H1       0.31186    0.24700    0.39957   1.00
C5       0.32460    0.24372    0.47761   1.00
H1       0.23299    0.18961    0.52599   1.00
H2       0.34903    0.24650    0.45646   1.00
H2       0.32817    0.26785    0.49897   1.00
N1       0.32763    0.20583    0.49708   1.00
C6       0.32504    0.17060    0.47988   1.00
C6       0.33390    0.19985    0.53540   1.00
C6       0.32933    0.14173    0.50757   1.00
C6       0.33496    0.16034    0.54289   1.00
H3       0.32006    0.16603    0.44901   1.00
H3       0.33705    0.22278    0.55691   1.00
H3       0.32850    0.11059    0.50259   1.00
H3       0.33930    0.14665    0.57097   1.00
C4       0.24995    0.74992    0.47915   1.00
C4       0.25005    0.75008    0.52085   1.00
C3       0.25958    0.71649    0.45708   1.00
C3       0.21494    0.74763    0.54225   1.00
C3       0.23995    0.78396    0.45816   1.00
C3a      0.28554    0.75219    0.54263   1.00
C2       0.24990    0.75150    0.39483   1.00
C2       0.24978    0.74855    0.60517   1.00
C3       0.25956    0.71734    0.41566   1.00
C3       0.21487    0.74686    0.58359   1.00
C3       0.24010    0.78477    0.41680   1.00
C3       0.28484    0.75126    0.58415   1.00
H1       0.26718    0.68966    0.47192   1.00
H1       0.18738    0.74601    0.52685   1.00
H1       0.26717    0.69119    0.39968   1.00
H1       0.18734    0.74486    0.59895   1.00
H1       0.23279    0.81158    0.40179   1.00
H1       0.31186    0.75300    0.60043   1.00
C5       0.32460    0.75628    0.52239   1.00
H1       0.23299    0.81039    0.47401   1.00
H2       0.34903    0.75350    0.54354   1.00
H2       0.32817    0.73215    0.50103   1.00
N1       0.32763    0.79417    0.50292   1.00
C6       0.32504    0.82940    0.52012   1.00
C6       0.33390    0.80015    0.46460   1.00
C6       0.32933    0.85827    0.49243   1.00
C6       0.33496    0.83966    0.45711   1.00
H3       0.32006    0.83397    0.55099   1.00
H3       0.33705    0.77722    0.44309   1.00
H3       0.32850    0.88941    0.49741   1.00
H3       0.33930    0.85335    0.42903   1.00
C4       0.24992    0.97915    0.24995   1.00
C4       0.25008    1.02085    0.25005   1.00
C3       0.21649    0.95708    0.25958   1.00
C3       0.24763    1.04225    0.21494   1.00
C3       0.28396    0.95816    0.23995   1.00
C3a      0.25219    1.04263    0.28554   1.00
C2       0.25150    0.89483    0.24990   1.00
C2       0.24855    1.10517    0.24978   1.00
C3       0.21734    0.91566    0.25956   1.00
C3       0.24686    1.08359    0.21487   1.00
C3       0.28477    0.91680    0.24010   1.00
C3       0.25126    1.08415    0.28484   1.00
H1       0.18966    0.97192    0.26718   1.00
H1       0.24601    1.02685    0.18738   1.00
H1       0.19119    0.89968    0.26717   1.00
H1       0.24486    1.09895    0.18734   1.00
H1       0.31158    0.90179    0.23279   1.00
H1       0.25300    1.10043    0.31186   1.00
C5       0.25628    1.02239    0.32460   1.00
H1       0.31039    0.97401    0.23299   1.00
H2       0.25350    1.04354    0.34903   1.00
H2       0.23215    1.00103    0.32817   1.00
N1       0.29417    1.00292    0.32763   1.00
C6       0.32940    1.02012    0.32504   1.00
C6       0.30015    0.96460    0.33390   1.00
C6       0.35827    0.99243    0.32933   1.00
C6       0.33966    0.95711    0.33496   1.00
H3       0.33397    1.05099    0.32006   1.00
H3       0.27722    0.94309    0.33705   1.00
H3       0.38941    0.99741    0.32850   1.00
H3       0.35335    0.92903    0.33930   1.00
C4       0.02085    0.74995    0.25008   1.00
C4       -0.02085   0.75005    0.24992   1.00
C3       0.04292    0.75958    0.28351   1.00
C3       -0.04225   0.71494    0.25237   1.00
C3       0.04184    0.73995    0.21604   1.00
C3a      -0.04263   0.78554    0.24781   1.00
C2       0.10517    0.74990    0.24850   1.00
C2       -0.10517   0.74978    0.25145   1.00
C3       0.08434    0.75956    0.28266   1.00
C3       -0.08359   0.71487    0.25314   1.00
C3       0.08320    0.74010    0.21523   1.00
C3       -0.08415   0.78484    0.24874   1.00
H1       0.02808    0.76718    0.31034   1.00
H1       -0.02685   0.68738    0.25399   1.00
H1       0.10032    0.76717    0.30881   1.00
H1       -0.09895   0.68734    0.25514   1.00
H1       0.09821    0.73279    0.18842   1.00
H1       -0.10043   0.81186    0.24700   1.00
C5       -0.02239   0.82460    0.24372   1.00
H1       0.02599    0.73299    0.18961   1.00
H2       -0.04354   0.84903    0.24650   1.00
H2       -0.00103   0.82817    0.26785   1.00
N1       -0.00292   0.82763    0.20583   1.00
C6       -0.02012   0.82504    0.17060   1.00
C6       0.03540    0.83390    0.19985   1.00
C6       0.00757    0.82933    0.14173   1.00
C6       0.04289    0.83496    0.16034   1.00
H3       -0.05099   0.82006    0.16603   1.00
H3       0.05691    0.83705    0.22278   1.00
H3       0.00259    0.82850    0.11059   1.00
H3       0.07097    0.83930    0.14665   1.00
C4       0.47915    0.74995    0.24992   1.00
C4       0.52085    0.75005    0.25008   1.00
C3       0.45708    0.75958    0.21649   1.00
C3       0.54225    0.71494    0.24763   1.00
C3       0.45816    0.73995    0.28396   1.00
C3a      0.54263    0.78554    0.25219   1.00
C2       0.39483    0.74990    0.25150   1.00
C2       0.60517    0.74978    0.24855   1.00
C3       0.41566    0.75956    0.21734   1.00
C3       0.58359    0.71487    0.24686   1.00
C3       0.41680    0.74010    0.28477   1.00
C3       0.58415    0.78484    0.25126   1.00
H1       0.47192    0.76718    0.18966   1.00
H1       0.52685    0.68738    0.24601   1.00
H1       0.39968    0.76717    0.19119   1.00
H1       0.59895    0.68734    0.24486   1.00
H1       0.40179    0.73279    0.31158   1.00
H1       0.60043    0.81186    0.25300   1.00
C5       0.52239    0.82460    0.25628   1.00
H1       0.47401    0.73299    0.31039   1.00
H2       0.54354    0.84903    0.25350   1.00
H2       0.50103    0.82817    0.23215   1.00
N1       0.50292    0.82763    0.29417   1.00
C6       0.52012    0.82504    0.32940   1.00
C6       0.46460    0.83390    0.30015   1.00
C6       0.49243    0.82933    0.35827   1.00
C6       0.45711    0.83496    0.33966   1.00
H3       0.55099    0.82006    0.33397   1.00
H3       0.44309    0.83705    0.27722   1.00
H3       0.49741    0.82850    0.38941   1.00
H3       0.42903    0.83930    0.35335   1.00
C4       0.25008    0.52085    0.24995   1.00
C4       0.24992    0.47915    0.25005   1.00
C3       0.28351    0.54292    0.25958   1.00
C3       0.25237    0.45775    0.21494   1.00
C3       0.21604    0.54184    0.23995   1.00
C3a      0.24781    0.45737    0.28554   1.00
C2       0.24850    0.60517    0.24990   1.00
C2       0.25145    0.39483    0.24978   1.00
C3       0.28266    0.58434    0.25956   1.00
C3       0.25314    0.41641    0.21487   1.00
C3       0.21523    0.58320    0.24010   1.00
C3       0.24874    0.41585    0.28484   1.00
H1       0.31034    0.52808    0.26718   1.00
H1       0.25399    0.47315    0.18738   1.00
H1       0.30881    0.60032    0.26717   1.00
H1       0.25514    0.40105    0.18734   1.00
H1       0.18842    0.59821    0.23279   1.00
H1       0.24700    0.39957    0.31186   1.00
C5       0.24372    0.47761    0.32460   1.00
H1       0.18961    0.52599    0.23299   1.00
H2       0.24650    0.45646    0.34903   1.00
H2       0.26785    0.49897    0.32817   1.00
N1       0.20583    0.49708    0.32763   1.00
C6       0.17060    0.47988    0.32504   1.00
C6       0.19985    0.53540    0.33390   1.00
C6       0.14173    0.50757    0.32933   1.00
C6       0.16034    0.54289    0.33496   1.00
H3       0.16603    0.44901    0.32006   1.00
H3       0.22278    0.55691    0.33705   1.00
H3       0.11059    0.50259    0.32850   1.00
H3       0.14665    0.57097    0.33930   1.00
C4       0.24995    0.75008    0.02085   1.00
C4       0.25005    0.74992    -0.02085   1.00
C3       0.25958    0.78351    0.04292   1.00
C3       0.21494    0.75237    -0.04225   1.00
C3       0.23995    0.71604    0.04184   1.00
C3a      0.28554    0.74781    -0.04263   1.00
C2       0.24990    0.74850    0.10517   1.00
C2       0.24978    0.75145    -0.10517   1.00
C3       0.25956    0.78266    0.08434   1.00
C3       0.21487    0.75314    -0.08359   1.00
C3       0.24010    0.71523    0.08320   1.00
C3       0.28484    0.74874    -0.08415   1.00
H1       0.26718    0.81034    0.02808   1.00
H1       0.18738    0.75399    -0.02685   1.00
H1       0.26717    0.80881    0.10032   1.00
H1       0.18734    0.75514    -0.09895   1.00
H1       0.23279    0.68842    0.09821   1.00
H1       0.31186    0.74700    -0.10043   1.00
C5       0.32460    0.74372    -0.02239   1.00
H1       0.23299    0.68961    0.02599   1.00
H2       0.34903    0.74650    -0.04354   1.00
H2       0.32817    0.76785    -0.00103   1.00
N1       0.32763    0.70583    -0.00292   1.00
C6       0.32504    0.67060    -0.02012   1.00
C6       0.33390    0.69985    0.03540   1.00
C6       0.32933    0.64173    0.00757   1.00
C6       0.33496    0.66034    0.04289   1.00
H3       0.32006    0.66603    -0.05099   1.00
H3       0.33705    0.72278    0.05691   1.00
H3       0.32850    0.61059    0.00259   1.00
H3       0.33930    0.64665    0.07097   1.00
C4       0.74995    0.24992    0.47915   1.00
C4       0.75005    0.25008    0.52085   1.00
C3       0.75958    0.21649    0.45708   1.00
C3       0.71494    0.24763    0.54225   1.00
C3       0.73995    0.28396    0.45816   1.00
C3a      0.78554    0.25219    0.54263   1.00
C2       0.74990    0.25150    0.39483   1.00
C2       0.74978    0.24855    0.60517   1.00
C3       0.75956    0.21734    0.41566   1.00
C3       0.71487    0.24686    0.58359   1.00
C3       0.74010    0.28477    0.41680   1.00
C3       0.78484    0.25126    0.58415   1.00
H1       0.76718    0.18966    0.47192   1.00
H1       0.68738    0.24601    0.52685   1.00
H1       0.76717    0.19119    0.39968   1.00
H1       0.68734    0.24486    0.59895   1.00
H1       0.73279    0.31158    0.40179   1.00
H1       0.81186    0.25300    0.60043   1.00
C5       0.82460    0.25628    0.52239   1.00
H1       0.73299    0.31039    0.47401   1.00
H2       0.84903    0.25350    0.54354   1.00
H2       0.82817    0.23215    0.50103   1.00
N1       0.82763    0.29417    0.50292   1.00
C6       0.82504    0.32940    0.52012   1.00
C6       0.83390    0.30015    0.46460   1.00
C6       0.82933    0.35827    0.49243   1.00
C6       0.83496    0.33966    0.45711   1.00
H3       0.82006    0.33397    0.55099   1.00
H3       0.83705    0.27722    0.44309   1.00
H3       0.82850    0.38941    0.49741   1.00
H3       0.83930    0.35335    0.42903   1.00
C4       0.74992    0.47915    0.24995   1.00
C4       0.75008    0.52085    0.25005   1.00
C3       0.71649    0.45708    0.25958   1.00
C3       0.74763    0.54225    0.21494   1.00
C3       0.78396    0.45816    0.23995   1.00
C3a      0.75219    0.54263    0.28554   1.00
C2       0.75150    0.39483    0.24990   1.00
C2       0.74855    0.60517    0.24978   1.00
C3       0.71734    0.41566    0.25956   1.00
C3       0.74686    0.58359    0.21487   1.00
C3       0.78477    0.41680    0.24010   1.00
C3       0.75126    0.58415    0.28484   1.00
H1       0.68966    0.47192    0.26718   1.00
H1       0.74601    0.52685    0.18738   1.00
H1       0.69119    0.39968    0.26717   1.00
H1       0.74486    0.59895    0.18734   1.00
H1       0.81158    0.40179    0.23279   1.00
H1       0.75300    0.60043    0.31186   1.00
C5       0.75628    0.52239    0.32460   1.00
H1       0.81039    0.47401    0.23299   1.00
H2       0.75350    0.54354    0.34903   1.00
H2       0.73215    0.50103    0.32817   1.00
N1       0.79417    0.50292    0.32763   1.00
C6       0.82940    0.52012    0.32504   1.00
C6       0.80015    0.46460    0.33390   1.00
C6       0.85827    0.49243    0.32933   1.00
C6       0.83966    0.45711    0.33496   1.00
H3       0.83397    0.55099    0.32006   1.00
H3       0.77722    0.44309    0.33705   1.00
H3       0.88941    0.49741    0.32850   1.00
H3       0.85335    0.42903    0.33930   1.00
C4       0.52085    0.24995    0.25008   1.00
C4       0.47915    0.25005    0.24992   1.00
C3       0.54292    0.25958    0.28351   1.00
C3       0.45775    0.21494    0.25237   1.00
C3       0.54184    0.23995    0.21604   1.00
C3a      0.45737    0.28554    0.24781   1.00
C2       0.60517    0.24990    0.24850   1.00
C2       0.39483    0.24978    0.25145   1.00
C3       0.58434    0.25956    0.28266   1.00
C3       0.41641    0.21487    0.25314   1.00
C3       0.58320    0.24010    0.21523   1.00
C3       0.41585    0.28484    0.24874   1.00
H1       0.52808    0.26718    0.31034   1.00
H1       0.47315    0.18738    0.25399   1.00
H1       0.60032    0.26717    0.30881   1.00
H1       0.40105    0.18734    0.25514   1.00
H1       0.59821    0.23279    0.18842   1.00
H1       0.39957    0.31186    0.24700   1.00
C5       0.47761    0.32460    0.24372   1.00
H1       0.52599    0.23299    0.18961   1.00
H2       0.45646    0.34903    0.24650   1.00
H2       0.49897    0.32817    0.26785   1.00
N1       0.49708    0.32763    0.20583   1.00
C6       0.47988    0.32504    0.17060   1.00
C6       0.53540    0.33390    0.19985   1.00
C6       0.50757    0.32933    0.14173   1.00
C6       0.54289    0.33496    0.16034   1.00
H3       0.44901    0.32006    0.16603   1.00
H3       0.55691    0.33705    0.22278   1.00
H3       0.50259    0.32850    0.11059   1.00
H3       0.57097    0.33930    0.14665   1.00
C4       0.97915    0.24995    0.24992   1.00
C4       1.02085    0.25005    0.25008   1.00
C3       0.95708    0.25958    0.21649   1.00
C3       1.04225    0.21494    0.24763   1.00
C3       0.95816    0.23995    0.28396   1.00
C3a      1.04263    0.28554    0.25219   1.00
C2       0.89483    0.24990    0.25150   1.00
C2       1.10517    0.24978    0.24855   1.00
C3       0.91566    0.25956    0.21734   1.00
C3       1.08359    0.21487    0.24686   1.00
C3       0.91680    0.24010    0.28477   1.00
C3       1.08415    0.28484    0.25126   1.00
H1       0.97192    0.26718    0.18966   1.00
H1       1.02685    0.18738    0.24601   1.00
H1       0.89968    0.26717    0.19119   1.00
H1       1.09895    0.18734    0.24486   1.00
H1       0.90179    0.23279    0.31158   1.00
H1       1.10043    0.31186    0.25300   1.00
C5       1.02239    0.32460    0.25628   1.00
H1       0.97401    0.23299    0.31039   1.00
H2       1.04354    0.34903    0.25350   1.00
H2       1.00103    0.32817    0.23215   1.00
N1       1.00292    0.32763    0.29417   1.00
C6       1.02012    0.32504    0.32940   1.00
C6       0.96460    0.33390    0.30015   1.00
C6       0.99243    0.32933    0.35827   1.00
C6       0.95711    0.33496    0.33966   1.00
H3       1.05099    0.32006    0.33397   1.00
H3       0.94309    0.33705    0.27722   1.00
H3       0.99741    0.32850    0.38941   1.00
H3       0.92903    0.33930    0.35335   1.00
C4       0.75008    0.02085    0.24995   1.00
C4       0.74992    -0.02085   0.25005   1.00
C3       0.78351    0.04292    0.25958   1.00
C3       0.75237    -0.04225   0.21494   1.00
C3       0.71604    0.04184    0.23995   1.00
C3a      0.74781    -0.04263   0.28554   1.00
C2       0.74850    0.10517    0.24990   1.00
C2       0.75145    -0.10517   0.24978   1.00
C3       0.78266    0.08434    0.25956   1.00
C3       0.75314    -0.08359   0.21487   1.00
C3       0.71523    0.08320    0.24010   1.00
C3       0.74874    -0.08415   0.28484   1.00
H1       0.81034    0.02808    0.26718   1.00
H1       0.75399    -0.02685   0.18738   1.00
H1       0.80881    0.10032    0.26717   1.00
H1       0.75514    -0.09895   0.18734   1.00
H1       0.68842    0.09821    0.23279   1.00
H1       0.74700    -0.10043   0.31186   1.00
C5       0.74372    -0.02239   0.32460   1.00
H1       0.68961    0.02599    0.23299   1.00
H2       0.74650    -0.04354   0.34903   1.00
H2       0.76785    -0.00103   0.32817   1.00
N1       0.70583    -0.00292   0.32763   1.00
C6       0.67060    -0.02012   0.32504   1.00
C6       0.69985    0.03540    0.33390   1.00
C6       0.64173    0.00757    0.32933   1.00
C6       0.66034    0.04289    0.33496   1.00
H3       0.66603    -0.05099   0.32006   1.00
H3       0.72278    0.05691    0.33705   1.00
H3       0.61059    0.00259    0.32850   1.00
H3       0.64665    0.07097    0.33930   1.00
C4       0.74995    0.25008    0.02085   1.00
C4       0.75005    0.24992    -0.02085   1.00
C3       0.75958    0.28351    0.04292   1.00
C3       0.71494    0.25237    -0.04225   1.00
C3       0.73995    0.21604    0.04184   1.00
C3a      0.78554    0.24781    -0.04263   1.00
C2       0.74990    0.24850    0.10517   1.00
C2       0.74978    0.25145    -0.10517   1.00
C3       0.75956    0.28266    0.08434   1.00
C3       0.71487    0.25314    -0.08359   1.00
C3       0.74010    0.21523    0.08320   1.00
C3       0.78484    0.24874    -0.08415   1.00
H1       0.76718    0.31034    0.02808   1.00
H1       0.68738    0.25399    -0.02685   1.00
H1       0.76717    0.30881    0.10032   1.00
H1       0.68734    0.25514    -0.09895   1.00
H1       0.73279    0.18842    0.09821   1.00
H1       0.81186    0.24700    -0.10043   1.00
C5       0.82460    0.24372    -0.02239   1.00
H1       0.73299    0.18961    0.02599   1.00
H2       0.84903    0.24650    -0.04354   1.00
H2       0.82817    0.26785    -0.00103   1.00
N1       0.82763    0.20583    -0.00292   1.00
C6       0.82504    0.17060    -0.02012   1.00
C6       0.83390    0.19985    0.03540   1.00
C6       0.82933    0.14173    0.00757   1.00
C6       0.83496    0.16034    0.04289   1.00
H3       0.82006    0.16603    -0.05099   1.00
H3       0.83705    0.22278    0.05691   1.00
H3       0.82850    0.11059    0.00259   1.00
H3       0.83930    0.14665    0.07097   1.00
C4       0.91495    0.91492    1.14415   1.00
C4       0.91505    0.91508    1.18585   1.00
C3       0.92458    0.88149    1.12208   1.00
C3       0.87994    0.91263    1.20725   1.00
C3       0.90495    0.94896    1.12316   1.00
C3a      0.95054    0.91719    1.20763   1.00
C2       0.91490    0.91650    1.05983   1.00
C2       0.91478    0.91355    1.27017   1.00
C3       0.92456    0.88234    1.08066   1.00
C3       0.87987    0.91186    1.24859   1.00
C3       0.90510    0.94977    1.08180   1.00
C3       0.94984    0.91626    1.24915   1.00
H1       0.93218    0.85466    1.13692   1.00
H1       0.85238    0.91101    1.19185   1.00
H1       0.93217    0.85619    1.06468   1.00
H1       0.85234    0.90986    1.26395   1.00
H1       0.89779    0.97658    1.06679   1.00
H1       0.97686    0.91800    1.26543   1.00
C5       0.98960    0.92128    1.18739   1.00
H1       0.89799    0.97539    1.13901   1.00
H2       1.01403    0.91850    1.20854   1.00
H2       0.99317    0.89715    1.16603   1.00
N1       0.99263    0.95917    1.16792   1.00
C6       0.99004    0.99440    1.18512   1.00
C6       0.99890    0.96515    1.12960   1.00
C6       0.99433    1.02327    1.15743   1.00
C6       0.99996    1.00466    1.12211   1.00
H3       0.98506    0.99897    1.21599   1.00
H3       1.00205    0.94222    1.10809   1.00
H3       0.99350    1.05441    1.16241   1.00
H3       1.00430    1.01835    1.09403   1.00
C4       0.91492    1.14415    0.91495   1.00
C4       0.91508    1.18585    0.91505   1.00
C3       0.88149    1.12208    0.92458   1.00
C3       0.91263    1.20725    0.87994   1.00
C3       0.94896    1.12316    0.90495   1.00
C3a      0.91719    1.20763    0.95054   1.00
C2       0.91650    1.05983    0.91490   1.00
C2       0.91355    1.27017    0.91478   1.00
C3       0.88234    1.08066    0.92456   1.00
C3       0.91186    1.24859    0.87987   1.00
C3       0.94977    1.08180    0.90510   1.00
C3       0.91626    1.24915    0.94984   1.00
H1       0.85466    1.13692    0.93218   1.00
H1       0.91101    1.19185    0.85238   1.00
H1       0.85619    1.06468    0.93217   1.00
H1       0.90986    1.26395    0.85234   1.00
H1       0.97658    1.06679    0.89779   1.00
H1       0.91800    1.26543    0.97686   1.00
C5       0.92128    1.18739    0.98960   1.00
H1       0.97539    1.13901    0.89799   1.00
H2       0.91850    1.20854    1.01403   1.00
H2       0.89715    1.16603    0.99317   1.00
N1       0.95917    1.16792    0.99263   1.00
C6       0.99440    1.18512    0.99004   1.00
C6       0.96515    1.12960    0.99890   1.00
C6       1.02327    1.15743    0.99433   1.00
C6       1.00466    1.12211    0.99996   1.00
H3       0.99897    1.21599    0.98506   1.00
H3       0.94222    1.10809    1.00205   1.00
H3       1.05441    1.16241    0.99350   1.00
H3       1.01835    1.09403    1.00430   1.00
C4       0.68585    0.91495    0.91508   1.00
C4       0.64415    0.91505    0.91492   1.00
C3       0.70792    0.92458    0.94851   1.00
C3       0.62275    0.87994    0.91737   1.00
C3       0.70684    0.90495    0.88104   1.00
C3a      0.62237    0.95054    0.91281   1.00
C2       0.77017    0.91490    0.91350   1.00
C2       0.55983    0.91478    0.91645   1.00
C3       0.74934    0.92456    0.94766   1.00
C3       0.58141    0.87987    0.91814   1.00
C3       0.74820    0.90510    0.88023   1.00
C3       0.58085    0.94984    0.91374   1.00
H1       0.69308    0.93218    0.97534   1.00
H1       0.63815    0.85238    0.91899   1.00
H1       0.76532    0.93217    0.97381   1.00
H1       0.56605    0.85234    0.92014   1.00
H1       0.76321    0.89779    0.85342   1.00
H1       0.56457    0.97686    0.91200   1.00
C5       0.64261    0.98960    0.90872   1.00
H1       0.69099    0.89799    0.85461   1.00
H2       0.62146    1.01403    0.91150   1.00
H2       0.66397    0.99317    0.93285   1.00
N1       0.66208    0.99263    0.87083   1.00
C6       0.64488    0.99004    0.83560   1.00
C6       0.70040    0.99890    0.86485   1.00
C6       0.67257    0.99433    0.80673   1.00
C6       0.70789    0.99996    0.82534   1.00
H3       0.61401    0.98506    0.83103   1.00
H3       0.72191    1.00205    0.88778   1.00
H3       0.66759    0.99350    0.77559   1.00
H3       0.73597    1.00430    0.81165   1.00
C4       1.14415    0.91495    0.91492   1.00
C4       1.18585    0.91505    0.91508   1.00
C3       1.12208    0.92458    0.88149   1.00
C3       1.20725    0.87994    0.91263   1.00
C3       1.12316    0.90495    0.94896   1.00
C3a      1.20763    0.95054    0.91719   1.00
C2       1.05983    0.91490    0.91650   1.00
C2       1.27017    0.91478    0.91355   1.00
C3       1.08066    0.92456    0.88234   1.00
C3       1.24859    0.87987    0.91186   1.00
C3       1.08180    0.90510    0.94977   1.00
C3       1.24915    0.94984    0.91626   1.00
H1       1.13692    0.93218    0.85466   1.00
H1       1.19185    0.85238    0.91101   1.00
H1       1.06468    0.93217    0.85619   1.00
H1       1.26395    0.85234    0.90986   1.00
H1       1.06679    0.89779    0.97658   1.00
H1       1.26543    0.97686    0.91800   1.00
C5       1.18739    0.98960    0.92128   1.00
H1       1.13901    0.89799    0.97539   1.00
H2       1.20854    1.01403    0.91850   1.00
H2       1.16603    0.99317    0.89715   1.00
N1       1.16792    0.99263    0.95917   1.00
C6       1.18512    0.99004    0.99440   1.00
C6       1.12960    0.99890    0.96515   1.00
C6       1.15743    0.99433    1.02327   1.00
C6       1.12211    0.99996    1.00466   1.00
H3       1.21599    0.98506    0.99897   1.00
H3       1.10809    1.00205    0.94222   1.00
H3       1.16241    0.99350    1.05441   1.00
H3       1.09403    1.00430    1.01835   1.00
C4       0.91508    0.68585    0.91495   1.00
C4       0.91492    0.64415    0.91505   1.00
C3       0.94851    0.70792    0.92458   1.00
C3       0.91737    0.62275    0.87994   1.00
C3       0.88104    0.70684    0.90495   1.00
C3a      0.91281    0.62237    0.95054   1.00
C2       0.91350    0.77017    0.91490   1.00
C2       0.91645    0.55983    0.91478   1.00
C3       0.94766    0.74934    0.92456   1.00
C3       0.91814    0.58141    0.87987   1.00
C3       0.88023    0.74820    0.90510   1.00
C3       0.91374    0.58085    0.94984   1.00
H1       0.97534    0.69308    0.93218   1.00
H1       0.91899    0.63815    0.85238   1.00
H1       0.97381    0.76532    0.93217   1.00
H1       0.92014    0.56605    0.85234   1.00
H1       0.85342    0.76321    0.89779   1.00
H1       0.91200    0.56457    0.97686   1.00
C5       0.90872    0.64261    0.98960   1.00
H1       0.85461    0.69099    0.89799   1.00
H2       0.91150    0.62146    1.01403   1.00
H2       0.93285    0.66397    0.99317   1.00
N1       0.87083    0.66208    0.99263   1.00
C6       0.83560    0.64488    0.99004   1.00
C6       0.86485    0.70040    0.99890   1.00
C6       0.80673    0.67257    0.99433   1.00
C6       0.82534    0.70789    0.99996   1.00
H3       0.83103    0.61401    0.98506   1.00
H3       0.88778    0.72191    1.00205   1.00
H3       0.77559    0.66759    0.99350   1.00
H3       0.81165    0.73597    1.00430   1.00
C4       0.91495    0.91508    0.68585   1.00
C4       0.91505    0.91492    0.64415   1.00
C3       0.92458    0.94851    0.70792   1.00
C3       0.87994    0.91737    0.62275   1.00
C3       0.90495    0.88104    0.70684   1.00
C3a      0.95054    0.91281    0.62237   1.00
C2       0.91490    0.91350    0.77017   1.00
C2       0.91478    0.91645    0.55983   1.00
C3       0.92456    0.94766    0.74934   1.00
C3       0.87987    0.91814    0.58141   1.00
C3       0.90510    0.88023    0.74820   1.00
C3       0.94984    0.91374    0.58085   1.00
H1       0.93218    0.97534    0.69308   1.00
H1       0.85238    0.91899    0.63815   1.00
H1       0.93217    0.97381    0.76532   1.00
H1       0.85234    0.92014    0.56605   1.00
H1       0.89779    0.85342    0.76321   1.00
H1       0.97686    0.91200    0.56457   1.00
C5       0.98960    0.90872    0.64261   1.00
H1       0.89799    0.85461    0.69099   1.00
H2       1.01403    0.91150    0.62146   1.00
H2       0.99317    0.93285    0.66397   1.00
N1       0.99263    0.87083    0.66208   1.00
C6       0.99004    0.83560    0.64488   1.00
C6       0.99890    0.86485    0.70040   1.00
C6       0.99433    0.80673    0.67257   1.00
C6       0.99996    0.82534    0.70789   1.00
H3       0.98506    0.83103    0.61401   1.00
H3       1.00205    0.88778    0.72191   1.00
H3       0.99350    0.77559    0.66759   1.00
H3       1.00430    0.81165    0.73597   1.00
C4       0.41495    0.41492    1.14415   1.00
C4       0.41505    0.41508    1.18585   1.00
C3       0.42458    0.38149    1.12208   1.00
C3       0.37994    0.41263    1.20725   1.00
C3       0.40495    0.44896    1.12316   1.00
C3a      0.45054    0.41719    1.20763   1.00
C2       0.41490    0.41650    1.05983   1.00
C2       0.41478    0.41355    1.27017   1.00
C3       0.42456    0.38234    1.08066   1.00
C3       0.37987    0.41186    1.24859   1.00
C3       0.40510    0.44977    1.08180   1.00
C3       0.44984    0.41626    1.24915   1.00
H1       0.43218    0.35466    1.13692   1.00
H1       0.35238    0.41101    1.19185   1.00
H1       0.43217    0.35619    1.06468   1.00
H1       0.35234    0.40986    1.26395   1.00
H1       0.39779    0.47658    1.06679   1.00
H1       0.47686    0.41800    1.26543   1.00
C5       0.48960    0.42128    1.18739   1.00
H1       0.39799    0.47539    1.13901   1.00
H2       0.51403    0.41850    1.20854   1.00
H2       0.49317    0.39715    1.16603   1.00
N1       0.49263    0.45917    1.16792   1.00
C6       0.49004    0.49440    1.18512   1.00
C6       0.49890    0.46515    1.12960   1.00
C6       0.49433    0.52327    1.15743   1.00
C6       0.49996    0.50466    1.12211   1.00
H3       0.48506    0.49897    1.21599   1.00
H3       0.50205    0.44222    1.10809   1.00
H3       0.49350    0.55441    1.16241   1.00
H3       0.50430    0.51835    1.09403   1.00
C4       0.41492    0.64415    0.91495   1.00
C4       0.41508    0.68585    0.91505   1.00
C3       0.38149    0.62208    0.92458   1.00
C3       0.41263    0.70725    0.87994   1.00
C3       0.44896    0.62316    0.90495   1.00
C3a      0.41719    0.70763    0.95054   1.00
C2       0.41650    0.55983    0.91490   1.00
C2       0.41355    0.77017    0.91478   1.00
C3       0.38234    0.58066    0.92456   1.00
C3       0.41186    0.74859    0.87987   1.00
C3       0.44977    0.58180    0.90510   1.00
C3       0.41626    0.74915    0.94984   1.00
H1       0.35466    0.63692    0.93218   1.00
H1       0.41101    0.69185    0.85238   1.00
H1       0.35619    0.56468    0.93217   1.00
H1       0.40986    0.76395    0.85234   1.00
H1       0.47658    0.56679    0.89779   1.00
H1       0.41800    0.76543    0.97686   1.00
C5       0.42128    0.68739    0.98960   1.00
H1       0.47539    0.63901    0.89799   1.00
H2       0.41850    0.70854    1.01403   1.00
H2       0.39715    0.66603    0.99317   1.00
N1       0.45917    0.66792    0.99263   1.00
C6       0.49440    0.68512    0.99004   1.00
C6       0.46515    0.62960    0.99890   1.00
C6       0.52327    0.65743    0.99433   1.00
C6       0.50466    0.62211    0.99996   1.00
H3       0.49897    0.71599    0.98506   1.00
H3       0.44222    0.60809    1.00205   1.00
H3       0.55441    0.66241    0.99350   1.00
H3       0.51835    0.59403    1.00430   1.00
C4       0.18585    0.41495    0.91508   1.00
C4       0.14415    0.41505    0.91492   1.00
C3       0.20792    0.42458    0.94851   1.00
C3       0.12275    0.37994    0.91737   1.00
C3       0.20684    0.40495    0.88104   1.00
C3a      0.12237    0.45054    0.91281   1.00
C2       0.27017    0.41490    0.91350   1.00
C2       0.05983    0.41478    0.91645   1.00
C3       0.24934    0.42456    0.94766   1.00
C3       0.08141    0.37987    0.91814   1.00
C3       0.24820    0.40510    0.88023   1.00
C3       0.08085    0.44984    0.91374   1.00
H1       0.19308    0.43218    0.97534   1.00
H1       0.13815    0.35238    0.91899   1.00
H1       0.26532    0.43217    0.97381   1.00
H1       0.06605    0.35234    0.92014   1.00
H1       0.26321    0.39779    0.85342   1.00
H1       0.06457    0.47686    0.91200   1.00
C5       0.14261    0.48960    0.90872   1.00
H1       0.19099    0.39799    0.85461   1.00
H2       0.12146    0.51403    0.91150   1.00
H2       0.16397    0.49317    0.93285   1.00
N1       0.16208    0.49263    0.87083   1.00
C6       0.14488    0.49004    0.83560   1.00
C6       0.20040    0.49890    0.86485   1.00
C6       0.17257    0.49433    0.80673   1.00
C6       0.20789    0.49996    0.82534   1.00
H3       0.11401    0.48506    0.83103   1.00
H3       0.22191    0.50205    0.88778   1.00
H3       0.16759    0.49350    0.77559   1.00
H3       0.23597    0.50430    0.81165   1.00
C4       0.64415    0.41495    0.91492   1.00
C4       0.68585    0.41505    0.91508   1.00
C3       0.62208    0.42458    0.88149   1.00
C3       0.70725    0.37994    0.91263   1.00
C3       0.62316    0.40495    0.94896   1.00
C3a      0.70763    0.45054    0.91719   1.00
C2       0.55983    0.41490    0.91650   1.00
C2       0.77017    0.41478    0.91355   1.00
C3       0.58066    0.42456    0.88234   1.00
C3       0.74859    0.37987    0.91186   1.00
C3       0.58180    0.40510    0.94977   1.00
C3       0.74915    0.44984    0.91626   1.00
H1       0.63692    0.43218    0.85466   1.00
H1       0.69185    0.35238    0.91101   1.00
H1       0.56468    0.43217    0.85619   1.00
H1       0.76395    0.35234    0.90986   1.00
H1       0.56679    0.39779    0.97658   1.00
H1       0.76543    0.47686    0.91800   1.00
C5       0.68739    0.48960    0.92128   1.00
H1       0.63901    0.39799    0.97539   1.00
H2       0.70854    0.51403    0.91850   1.00
H2       0.66603    0.49317    0.89715   1.00
N1       0.66792    0.49263    0.95917   1.00
C6       0.68512    0.49004    0.99440   1.00
C6       0.62960    0.49890    0.96515   1.00
C6       0.65743    0.49433    1.02327   1.00
C6       0.62211    0.49996    1.00466   1.00
H3       0.71599    0.48506    0.99897   1.00
H3       0.60809    0.50205    0.94222   1.00
H3       0.66241    0.49350    1.05441   1.00
H3       0.59403    0.50430    1.01835   1.00
C4       0.41508    0.18585    0.91495   1.00
C4       0.41492    0.14415    0.91505   1.00
C3       0.44851    0.20792    0.92458   1.00
C3       0.41737    0.12275    0.87994   1.00
C3       0.38104    0.20684    0.90495   1.00
C3a      0.41281    0.12237    0.95054   1.00
C2       0.41350    0.27017    0.91490   1.00
C2       0.41645    0.05983    0.91478   1.00
C3       0.44766    0.24934    0.92456   1.00
C3       0.41814    0.08141    0.87987   1.00
C3       0.38023    0.24820    0.90510   1.00
C3       0.41374    0.08085    0.94984   1.00
H1       0.47534    0.19308    0.93218   1.00
H1       0.41899    0.13815    0.85238   1.00
H1       0.47381    0.26532    0.93217   1.00
H1       0.42014    0.06605    0.85234   1.00
H1       0.35342    0.26321    0.89779   1.00
H1       0.41200    0.06457    0.97686   1.00
C5       0.40872    0.14261    0.98960   1.00
H1       0.35461    0.19099    0.89799   1.00
H2       0.41150    0.12146    1.01403   1.00
H2       0.43285    0.16397    0.99317   1.00
N1       0.37083    0.16208    0.99263   1.00
C6       0.33560    0.14488    0.99004   1.00
C6       0.36485    0.20040    0.99890   1.00
C6       0.30673    0.17257    0.99433   1.00
C6       0.32534    0.20789    0.99996   1.00
H3       0.33103    0.11401    0.98506   1.00
H3       0.38778    0.22191    1.00205   1.00
H3       0.27559    0.16759    0.99350   1.00
H3       0.31165    0.23597    1.00430   1.00
C4       0.41495    0.41508    0.68585   1.00
C4       0.41505    0.41492    0.64415   1.00
C3       0.42458    0.44851    0.70792   1.00
C3       0.37994    0.41737    0.62275   1.00
C3       0.40495    0.38104    0.70684   1.00
C3a      0.45054    0.41281    0.62237   1.00
C2       0.41490    0.41350    0.77017   1.00
C2       0.41478    0.41645    0.55983   1.00
C3       0.42456    0.44766    0.74934   1.00
C3       0.37987    0.41814    0.58141   1.00
C3       0.40510    0.38023    0.74820   1.00
C3       0.44984    0.41374    0.58085   1.00
H1       0.43218    0.47534    0.69308   1.00
H1       0.35238    0.41899    0.63815   1.00
H1       0.43217    0.47381    0.76532   1.00
H1       0.35234    0.42014    0.56605   1.00
H1       0.39779    0.35342    0.76321   1.00
H1       0.47686    0.41200    0.56457   1.00
C5       0.48960    0.40872    0.64261   1.00
H1       0.39799    0.35461    0.69099   1.00
H2       0.51403    0.41150    0.62146   1.00
H2       0.49317    0.43285    0.66397   1.00
N1       0.49263    0.37083    0.66208   1.00
C6       0.49004    0.33560    0.64488   1.00
C6       0.49890    0.36485    0.70040   1.00
C6       0.49433    0.30673    0.67257   1.00
C6       0.49996    0.32534    0.70789   1.00
H3       0.48506    0.33103    0.61401   1.00
H3       0.50205    0.38778    0.72191   1.00
H3       0.49350    0.27559    0.66759   1.00
H3       0.50430    0.31165    0.73597   1.00
C4       0.41495    0.91492    0.64415   1.00
C4       0.41505    0.91508    0.68585   1.00
C3       0.42458    0.88149    0.62208   1.00
C3       0.37994    0.91263    0.70725   1.00
C3       0.40495    0.94896    0.62316   1.00
C3a      0.45054    0.91719    0.70763   1.00
C2       0.41490    0.91650    0.55983   1.00
C2       0.41478    0.91355    0.77017   1.00
C3       0.42456    0.88234    0.58066   1.00
C3       0.37987    0.91186    0.74859   1.00
C3       0.40510    0.94977    0.58180   1.00
C3       0.44984    0.91626    0.74915   1.00
H1       0.43218    0.85466    0.63692   1.00
H1       0.35238    0.91101    0.69185   1.00
H1       0.43217    0.85619    0.56468   1.00
H1       0.35234    0.90986    0.76395   1.00
H1       0.39779    0.97658    0.56679   1.00
H1       0.47686    0.91800    0.76543   1.00
C5       0.48960    0.92128    0.68739   1.00
H1       0.39799    0.97539    0.63901   1.00
H2       0.51403    0.91850    0.70854   1.00
H2       0.49317    0.89715    0.66603   1.00
N1       0.49263    0.95917    0.66792   1.00
C6       0.49004    0.99440    0.68512   1.00
C6       0.49890    0.96515    0.62960   1.00
C6       0.49433    1.02327    0.65743   1.00
C6       0.49996    1.00466    0.62211   1.00
H3       0.48506    0.99897    0.71599   1.00
H3       0.50205    0.94222    0.60809   1.00
H3       0.49350    1.05441    0.66241   1.00
H3       0.50430    1.01835    0.59403   1.00
C4       0.41492    1.14415    0.41495   1.00
C4       0.41508    1.18585    0.41505   1.00
C3       0.38149    1.12208    0.42458   1.00
C3       0.41263    1.20725    0.37994   1.00
C3       0.44896    1.12316    0.40495   1.00
C3a      0.41719    1.20763    0.45054   1.00
C2       0.41650    1.05983    0.41490   1.00
C2       0.41355    1.27017    0.41478   1.00
C3       0.38234    1.08066    0.42456   1.00
C3       0.41186    1.24859    0.37987   1.00
C3       0.44977    1.08180    0.40510   1.00
C3       0.41626    1.24915    0.44984   1.00
H1       0.35466    1.13692    0.43218   1.00
H1       0.41101    1.19185    0.35238   1.00
H1       0.35619    1.06468    0.43217   1.00
H1       0.40986    1.26395    0.35234   1.00
H1       0.47658    1.06679    0.39779   1.00
H1       0.41800    1.26543    0.47686   1.00
C5       0.42128    1.18739    0.48960   1.00
H1       0.47539    1.13901    0.39799   1.00
H2       0.41850    1.20854    0.51403   1.00
H2       0.39715    1.16603    0.49317   1.00
N1       0.45917    1.16792    0.49263   1.00
C6       0.49440    1.18512    0.49004   1.00
C6       0.46515    1.12960    0.49890   1.00
C6       0.52327    1.15743    0.49433   1.00
C6       0.50466    1.12211    0.49996   1.00
H3       0.49897    1.21599    0.48506   1.00
H3       0.44222    1.10809    0.50205   1.00
H3       0.55441    1.16241    0.49350   1.00
H3       0.51835    1.09403    0.50430   1.00
C4       0.18585    0.91495    0.41508   1.00
C4       0.14415    0.91505    0.41492   1.00
C3       0.20792    0.92458    0.44851   1.00
C3       0.12275    0.87994    0.41737   1.00
C3       0.20684    0.90495    0.38104   1.00
C3a      0.12237    0.95054    0.41281   1.00
C2       0.27017    0.91490    0.41350   1.00
C2       0.05983    0.91478    0.41645   1.00
C3       0.24934    0.92456    0.44766   1.00
C3       0.08141    0.87987    0.41814   1.00
C3       0.24820    0.90510    0.38023   1.00
C3       0.08085    0.94984    0.41374   1.00
H1       0.19308    0.93218    0.47534   1.00
H1       0.13815    0.85238    0.41899   1.00
H1       0.26532    0.93217    0.47381   1.00
H1       0.06605    0.85234    0.42014   1.00
H1       0.26321    0.89779    0.35342   1.00
H1       0.06457    0.97686    0.41200   1.00
C5       0.14261    0.98960    0.40872   1.00
H1       0.19099    0.89799    0.35461   1.00
H2       0.12146    1.01403    0.41150   1.00
H2       0.16397    0.99317    0.43285   1.00
N1       0.16208    0.99263    0.37083   1.00
C6       0.14488    0.99004    0.33560   1.00
C6       0.20040    0.99890    0.36485   1.00
C6       0.17257    0.99433    0.30673   1.00
C6       0.20789    0.99996    0.32534   1.00
H3       0.11401    0.98506    0.33103   1.00
H3       0.22191    1.00205    0.38778   1.00
H3       0.16759    0.99350    0.27559   1.00
H3       0.23597    1.00430    0.31165   1.00
C4       0.64415    0.91495    0.41492   1.00
C4       0.68585    0.91505    0.41508   1.00
C3       0.62208    0.92458    0.38149   1.00
C3       0.70725    0.87994    0.41263   1.00
C3       0.62316    0.90495    0.44896   1.00
C3a      0.70763    0.95054    0.41719   1.00
C2       0.55983    0.91490    0.41650   1.00
C2       0.77017    0.91478    0.41355   1.00
C3       0.58066    0.92456    0.38234   1.00
C3       0.74859    0.87987    0.41186   1.00
C3       0.58180    0.90510    0.44977   1.00
C3       0.74915    0.94984    0.41626   1.00
H1       0.63692    0.93218    0.35466   1.00
H1       0.69185    0.85238    0.41101   1.00
H1       0.56468    0.93217    0.35619   1.00
H1       0.76395    0.85234    0.40986   1.00
H1       0.56679    0.89779    0.47658   1.00
H1       0.76543    0.97686    0.41800   1.00
C5       0.68739    0.98960    0.42128   1.00
H1       0.63901    0.89799    0.47539   1.00
H2       0.70854    1.01403    0.41850   1.00
H2       0.66603    0.99317    0.39715   1.00
N1       0.66792    0.99263    0.45917   1.00
C6       0.68512    0.99004    0.49440   1.00
C6       0.62960    0.99890    0.46515   1.00
C6       0.65743    0.99433    0.52327   1.00
C6       0.62211    0.99996    0.50466   1.00
H3       0.71599    0.98506    0.49897   1.00
H3       0.60809    1.00205    0.44222   1.00
H3       0.66241    0.99350    0.55441   1.00
H3       0.59403    1.00430    0.51835   1.00
C4       0.41508    0.68585    0.41495   1.00
C4       0.41492    0.64415    0.41505   1.00
C3       0.44851    0.70792    0.42458   1.00
C3       0.41737    0.62275    0.37994   1.00
C3       0.38104    0.70684    0.40495   1.00
C3a      0.41281    0.62237    0.45054   1.00
C2       0.41350    0.77017    0.41490   1.00
C2       0.41645    0.55983    0.41478   1.00
C3       0.44766    0.74934    0.42456   1.00
C3       0.41814    0.58141    0.37987   1.00
C3       0.38023    0.74820    0.40510   1.00
C3       0.41374    0.58085    0.44984   1.00
H1       0.47534    0.69308    0.43218   1.00
H1       0.41899    0.63815    0.35238   1.00
H1       0.47381    0.76532    0.43217   1.00
H1       0.42014    0.56605    0.35234   1.00
H1       0.35342    0.76321    0.39779   1.00
H1       0.41200    0.56457    0.47686   1.00
C5       0.40872    0.64261    0.48960   1.00
H1       0.35461    0.69099    0.39799   1.00
H2       0.41150    0.62146    0.51403   1.00
H2       0.43285    0.66397    0.49317   1.00
N1       0.37083    0.66208    0.49263   1.00
C6       0.33560    0.64488    0.49004   1.00
C6       0.36485    0.70040    0.49890   1.00
C6       0.30673    0.67257    0.49433   1.00
C6       0.32534    0.70789    0.49996   1.00
H3       0.33103    0.61401    0.48506   1.00
H3       0.38778    0.72191    0.50205   1.00
H3       0.27559    0.66759    0.49350   1.00
H3       0.31165    0.73597    0.50430   1.00
C4       0.41495    0.91508    0.18585   1.00
C4       0.41505    0.91492    0.14415   1.00
C3       0.42458    0.94851    0.20792   1.00
C3       0.37994    0.91737    0.12275   1.00
C3       0.40495    0.88104    0.20684   1.00
C3a      0.45054    0.91281    0.12237   1.00
C2       0.41490    0.91350    0.27017   1.00
C2       0.41478    0.91645    0.05983   1.00
C3       0.42456    0.94766    0.24934   1.00
C3       0.37987    0.91814    0.08141   1.00
C3       0.40510    0.88023    0.24820   1.00
C3       0.44984    0.91374    0.08085   1.00
H1       0.43218    0.97534    0.19308   1.00
H1       0.35238    0.91899    0.13815   1.00
H1       0.43217    0.97381    0.26532   1.00
H1       0.35234    0.92014    0.06605   1.00
H1       0.39779    0.85342    0.26321   1.00
H1       0.47686    0.91200    0.06457   1.00
C5       0.48960    0.90872    0.14261   1.00
H1       0.39799    0.85461    0.19099   1.00
H2       0.51403    0.91150    0.12146   1.00
H2       0.49317    0.93285    0.16397   1.00
N1       0.49263    0.87083    0.16208   1.00
C6       0.49004    0.83560    0.14488   1.00
C6       0.49890    0.86485    0.20040   1.00
C6       0.49433    0.80673    0.17257   1.00
C6       0.49996    0.82534    0.20789   1.00
H3       0.48506    0.83103    0.11401   1.00
H3       0.50205    0.88778    0.22191   1.00
H3       0.49350    0.77559    0.16759   1.00
H3       0.50430    0.81165    0.23597   1.00
C4       0.91495    0.41492    0.64415   1.00
C4       0.91505    0.41508    0.68585   1.00
C3       0.92458    0.38149    0.62208   1.00
C3       0.87994    0.41263    0.70725   1.00
C3       0.90495    0.44896    0.62316   1.00
C3a      0.95054    0.41719    0.70763   1.00
C2       0.91490    0.41650    0.55983   1.00
C2       0.91478    0.41355    0.77017   1.00
C3       0.92456    0.38234    0.58066   1.00
C3       0.87987    0.41186    0.74859   1.00
C3       0.90510    0.44977    0.58180   1.00
C3       0.94984    0.41626    0.74915   1.00
H1       0.93218    0.35466    0.63692   1.00
H1       0.85238    0.41101    0.69185   1.00
H1       0.93217    0.35619    0.56468   1.00
H1       0.85234    0.40986    0.76395   1.00
H1       0.89779    0.47658    0.56679   1.00
H1       0.97686    0.41800    0.76543   1.00
C5       0.98960    0.42128    0.68739   1.00
H1       0.89799    0.47539    0.63901   1.00
H2       1.01403    0.41850    0.70854   1.00
H2       0.99317    0.39715    0.66603   1.00
N1       0.99263    0.45917    0.66792   1.00
C6       0.99004    0.49440    0.68512   1.00
C6       0.99890    0.46515    0.62960   1.00
C6       0.99433    0.52327    0.65743   1.00
C6       0.99996    0.50466    0.62211   1.00
H3       0.98506    0.49897    0.71599   1.00
H3       1.00205    0.44222    0.60809   1.00
H3       0.99350    0.55441    0.66241   1.00
H3       1.00430    0.51835    0.59403   1.00
C4       0.91492    0.64415    0.41495   1.00
C4       0.91508    0.68585    0.41505   1.00
C3       0.88149    0.62208    0.42458   1.00
C3       0.91263    0.70725    0.37994   1.00
C3       0.94896    0.62316    0.40495   1.00
C3a      0.91719    0.70763    0.45054   1.00
C2       0.91650    0.55983    0.41490   1.00
C2       0.91355    0.77017    0.41478   1.00
C3       0.88234    0.58066    0.42456   1.00
C3       0.91186    0.74859    0.37987   1.00
C3       0.94977    0.58180    0.40510   1.00
C3       0.91626    0.74915    0.44984   1.00
H1       0.85466    0.63692    0.43218   1.00
H1       0.91101    0.69185    0.35238   1.00
H1       0.85619    0.56468    0.43217   1.00
H1       0.90986    0.76395    0.35234   1.00
H1       0.97658    0.56679    0.39779   1.00
H1       0.91800    0.76543    0.47686   1.00
C5       0.92128    0.68739    0.48960   1.00
H1       0.97539    0.63901    0.39799   1.00
H2       0.91850    0.70854    0.51403   1.00
H2       0.89715    0.66603    0.49317   1.00
N1       0.95917    0.66792    0.49263   1.00
C6       0.99440    0.68512    0.49004   1.00
C6       0.96515    0.62960    0.49890   1.00
C6       1.02327    0.65743    0.49433   1.00
C6       1.00466    0.62211    0.49996   1.00
H3       0.99897    0.71599    0.48506   1.00
H3       0.94222    0.60809    0.50205   1.00
H3       1.05441    0.66241    0.49350   1.00
H3       1.01835    0.59403    0.50430   1.00
C4       0.68585    0.41495    0.41508   1.00
C4       0.64415    0.41505    0.41492   1.00
C3       0.70792    0.42458    0.44851   1.00
C3       0.62275    0.37994    0.41737   1.00
C3       0.70684    0.40495    0.38104   1.00
C3a      0.62237    0.45054    0.41281   1.00
C2       0.77017    0.41490    0.41350   1.00
C2       0.55983    0.41478    0.41645   1.00
C3       0.74934    0.42456    0.44766   1.00
C3       0.58141    0.37987    0.41814   1.00
C3       0.74820    0.40510    0.38023   1.00
C3       0.58085    0.44984    0.41374   1.00
H1       0.69308    0.43218    0.47534   1.00
H1       0.63815    0.35238    0.41899   1.00
H1       0.76532    0.43217    0.47381   1.00
H1       0.56605    0.35234    0.42014   1.00
H1       0.76321    0.39779    0.35342   1.00
H1       0.56457    0.47686    0.41200   1.00
C5       0.64261    0.48960    0.40872   1.00
H1       0.69099    0.39799    0.35461   1.00
H2       0.62146    0.51403    0.41150   1.00
H2       0.66397    0.49317    0.43285   1.00
N1       0.66208    0.49263    0.37083   1.00
C6       0.64488    0.49004    0.33560   1.00
C6       0.70040    0.49890    0.36485   1.00
C6       0.67257    0.49433    0.30673   1.00
C6       0.70789    0.49996    0.32534   1.00
H3       0.61401    0.48506    0.33103   1.00
H3       0.72191    0.50205    0.38778   1.00
H3       0.66759    0.49350    0.27559   1.00
H3       0.73597    0.50430    0.31165   1.00
C4       1.14415    0.41495    0.41492   1.00
C4       1.18585    0.41505    0.41508   1.00
C3       1.12208    0.42458    0.38149   1.00
C3       1.20725    0.37994    0.41263   1.00
C3       1.12316    0.40495    0.44896   1.00
C3a      1.20763    0.45054    0.41719   1.00
C2       1.05983    0.41490    0.41650   1.00
C2       1.27017    0.41478    0.41355   1.00
C3       1.08066    0.42456    0.38234   1.00
C3       1.24859    0.37987    0.41186   1.00
C3       1.08180    0.40510    0.44977   1.00
C3       1.24915    0.44984    0.41626   1.00
H1       1.13692    0.43218    0.35466   1.00
H1       1.19185    0.35238    0.41101   1.00
H1       1.06468    0.43217    0.35619   1.00
H1       1.26395    0.35234    0.40986   1.00
H1       1.06679    0.39779    0.47658   1.00
H1       1.26543    0.47686    0.41800   1.00
C5       1.18739    0.48960    0.42128   1.00
H1       1.13901    0.39799    0.47539   1.00
H2       1.20854    0.51403    0.41850   1.00
H2       1.16603    0.49317    0.39715   1.00
N1       1.16792    0.49263    0.45917   1.00
C6       1.18512    0.49004    0.49440   1.00
C6       1.12960    0.49890    0.46515   1.00
C6       1.15743    0.49433    0.52327   1.00
C6       1.12211    0.49996    0.50466   1.00
H3       1.21599    0.48506    0.49897   1.00
H3       1.10809    0.50205    0.44222   1.00
H3       1.16241    0.49350    0.55441   1.00
H3       1.09403    0.50430    0.51835   1.00
C4       0.91508    0.18585    0.41495   1.00
C4       0.91492    0.14415    0.41505   1.00
C3       0.94851    0.20792    0.42458   1.00
C3       0.91737    0.12275    0.37994   1.00
C3       0.88104    0.20684    0.40495   1.00
C3a      0.91281    0.12237    0.45054   1.00
C2       0.91350    0.27017    0.41490   1.00
C2       0.91645    0.05983    0.41478   1.00
C3       0.94766    0.24934    0.42456   1.00
C3       0.91814    0.08141    0.37987   1.00
C3       0.88023    0.24820    0.40510   1.00
C3       0.91374    0.08085    0.44984   1.00
H1       0.97534    0.19308    0.43218   1.00
H1       0.91899    0.13815    0.35238   1.00
H1       0.97381    0.26532    0.43217   1.00
H1       0.92014    0.06605    0.35234   1.00
H1       0.85342    0.26321    0.39779   1.00
H1       0.91200    0.06457    0.47686   1.00
C5       0.90872    0.14261    0.48960   1.00
H1       0.85461    0.19099    0.39799   1.00
H2       0.91150    0.12146    0.51403   1.00
H2       0.93285    0.16397    0.49317   1.00
N1       0.87083    0.16208    0.49263   1.00
C6       0.83560    0.14488    0.49004   1.00
C6       0.86485    0.20040    0.49890   1.00
C6       0.80673    0.17257    0.49433   1.00
C6       0.82534    0.20789    0.49996   1.00
H3       0.83103    0.11401    0.48506   1.00
H3       0.88778    0.22191    0.50205   1.00
H3       0.77559    0.16759    0.49350   1.00
H3       0.81165    0.23597    0.50430   1.00
C4       0.91495    0.41508    0.18585   1.00
C4       0.91505    0.41492    0.14415   1.00
C3       0.92458    0.44851    0.20792   1.00
C3       0.87994    0.41737    0.12275   1.00
C3       0.90495    0.38104    0.20684   1.00
C3a      0.95054    0.41281    0.12237   1.00
C2       0.91490    0.41350    0.27017   1.00
C2       0.91478    0.41645    0.05983   1.00
C3       0.92456    0.44766    0.24934   1.00
C3       0.87987    0.41814    0.08141   1.00
C3       0.90510    0.38023    0.24820   1.00
C3       0.94984    0.41374    0.08085   1.00
H1       0.93218    0.47534    0.19308   1.00
H1       0.85238    0.41899    0.13815   1.00
H1       0.93217    0.47381    0.26532   1.00
H1       0.85234    0.42014    0.06605   1.00
H1       0.89779    0.35342    0.26321   1.00
H1       0.97686    0.41200    0.06457   1.00
C5       0.98960    0.40872    0.14261   1.00
H1       0.89799    0.35461    0.19099   1.00
H2       1.01403    0.41150    0.12146   1.00
H2       0.99317    0.43285    0.16397   1.00
N1       0.99263    0.37083    0.16208   1.00
C6       0.99004    0.33560    0.14488   1.00
C6       0.99890    0.36485    0.20040   1.00
C6       0.99433    0.30673    0.17257   1.00
C6       0.99996    0.32534    0.20789   1.00
H3       0.98506    0.33103    0.11401   1.00
H3       1.00205    0.38778    0.22191   1.00
H3       0.99350    0.27559    0.16759   1.00
H3       1.00430    0.31165    0.23597   1.00
