data_IRMOF10_SG202_interpen_Ligand1cp_label_b.

_audit_creation_method             'generated by an auxiliary program of Tobunporous'

_symmetry_space_group_name_H-M     'P 1'
_symmetry_Int_Tables_number        1
_symmetry_cell_setting             triclinic

_cell_length_a                    34.2800
_cell_length_b                    34.2800
_cell_length_c                    34.2800
_cell_angle_alpha                 90.0000
_cell_angle_beta                  90.0000
_cell_angle_gamma                 90.0000

loop_
_atom_site_label
_atom_site_fract_x
_atom_site_fract_y
_atom_site_fract_z
_atom_site_occupancy
O1       0.75000    0.75000    0.75000   1.00
Zn1      0.71720    0.78280    0.78280   1.00
Zn1      0.78280    0.71720    0.78280   1.00
Zn1      0.78280    0.78280    0.71720   1.00
Zn1      0.71720    0.71720    0.71720   1.00
O2       0.72650    0.77350    0.83820   1.00
O2       0.72650    0.83820    0.77350   1.00
O2       0.66180    0.77350    0.77350   1.00
O2       0.77350    0.72650    0.83820   1.00
O2       0.83820    0.72650    0.77350   1.00
O2       0.77350    0.66180    0.77350   1.00
O2       0.77350    0.83820    0.72650   1.00
O2       0.83820    0.77350    0.72650   1.00
O2       0.77350    0.77350    0.66180   1.00
O2       0.66180    0.72650    0.72650   1.00
O2       0.72650    0.66180    0.72650   1.00
O2       0.72650    0.72650    0.66180   1.00
C1       0.75000    0.75000    0.85520   1.00
C1       0.75000    0.85520    0.75000   1.00
C1       0.64480    0.75000    0.75000   1.00
C1       0.85520    0.75000    0.75000   1.00
C1       0.75000    0.64480    0.75000   1.00
C1       0.75000    0.75000    0.64480   1.00
O1       0.25000    0.25000    0.75000   1.00
Zn1      0.21720    0.28280    0.78280   1.00
Zn1      0.28280    0.21720    0.78280   1.00
Zn1      0.28280    0.28280    0.71720   1.00
Zn1      0.21720    0.21720    0.71720   1.00
O2       0.22650    0.27350    0.83820   1.00
O2       0.22650    0.33820    0.77350   1.00
O2       0.16180    0.27350    0.77350   1.00
O2       0.27350    0.22650    0.83820   1.00
O2       0.33820    0.22650    0.77350   1.00
O2       0.27350    0.16180    0.77350   1.00
O2       0.27350    0.33820    0.72650   1.00
O2       0.33820    0.27350    0.72650   1.00
O2       0.27350    0.27350    0.66180   1.00
O2       0.16180    0.22650    0.72650   1.00
O2       0.22650    0.16180    0.72650   1.00
O2       0.22650    0.22650    0.66180   1.00
C1       0.25000    0.25000    0.85520   1.00
C1       0.25000    0.35520    0.75000   1.00
C1       0.14480    0.25000    0.75000   1.00
C1       0.35520    0.25000    0.75000   1.00
C1       0.25000    0.14480    0.75000   1.00
C1       0.25000    0.25000    0.64480   1.00
O1       0.25000    0.75000    0.25000   1.00
Zn1      0.21720    0.78280    0.28280   1.00
Zn1      0.28280    0.71720    0.28280   1.00
Zn1      0.28280    0.78280    0.21720   1.00
Zn1      0.21720    0.71720    0.21720   1.00
O2       0.22650    0.77350    0.33820   1.00
O2       0.22650    0.83820    0.27350   1.00
O2       0.16180    0.77350    0.27350   1.00
O2       0.27350    0.72650    0.33820   1.00
O2       0.33820    0.72650    0.27350   1.00
O2       0.27350    0.66180    0.27350   1.00
O2       0.27350    0.83820    0.22650   1.00
O2       0.33820    0.77350    0.22650   1.00
O2       0.27350    0.77350    0.16180   1.00
O2       0.16180    0.72650    0.22650   1.00
O2       0.22650    0.66180    0.22650   1.00
O2       0.22650    0.72650    0.16180   1.00
C1       0.25000    0.75000    0.35520   1.00
C1       0.25000    0.85520    0.25000   1.00
C1       0.14480    0.75000    0.25000   1.00
C1       0.35520    0.75000    0.25000   1.00
C1       0.25000    0.64480    0.25000   1.00
C1       0.25000    0.75000    0.14480   1.00
O1       0.75000    0.25000    0.25000   1.00
Zn1      0.71720    0.28280    0.28280   1.00
Zn1      0.78280    0.21720    0.28280   1.00
Zn1      0.78280    0.28280    0.21720   1.00
Zn1      0.71720    0.21720    0.21720   1.00
O2       0.72650    0.27350    0.33820   1.00
O2       0.72650    0.33820    0.27350   1.00
O2       0.66180    0.27350    0.27350   1.00
O2       0.77350    0.22650    0.33820   1.00
O2       0.83820    0.22650    0.27350   1.00
O2       0.77350    0.16180    0.27350   1.00
O2       0.77350    0.33820    0.22650   1.00
O2       0.83820    0.27350    0.22650   1.00
O2       0.77350    0.27350    0.16180   1.00
O2       0.66180    0.22650    0.22650   1.00
O2       0.72650    0.16180    0.22650   1.00
O2       0.72650    0.22650    0.16180   1.00
C1       0.75000    0.25000    0.35520   1.00
C1       0.75000    0.35520    0.25000   1.00
C1       0.64480    0.25000    0.25000   1.00
C1       0.85520    0.25000    0.25000   1.00
C1       0.75000    0.14480    0.25000   1.00
C1       0.75000    0.25000    0.14480   1.00
O1       0.25000    0.25000    0.25000   1.00
Zn1      0.28280    0.21720    0.21720   1.00
Zn1      0.21720    0.28280    0.21720   1.00
Zn1      0.21720    0.21720    0.28280   1.00
Zn1      0.28280    0.28280    0.28280   1.00
O2       0.27350    0.22650    0.16180   1.00
O2       0.27350    0.16180    0.22650   1.00
O2       0.33820    0.22650    0.22650   1.00
O2       0.22650    0.27350    0.16180   1.00
O2       0.16180    0.27350    0.22650   1.00
O2       0.22650    0.33820    0.22650   1.00
O2       0.22650    0.16180    0.27350   1.00
O2       0.16180    0.22650    0.27350   1.00
O2       0.22650    0.22650    0.33820   1.00
O2       0.33820    0.27350    0.27350   1.00
O2       0.27350    0.33820    0.27350   1.00
O2       0.27350    0.27350    0.33820   1.00
C1       0.25000    0.25000    0.14480   1.00
C1       0.25000    0.14480    0.25000   1.00
C1       0.35520    0.25000    0.25000   1.00
C1       0.14480    0.25000    0.25000   1.00
C1       0.25000    0.35520    0.25000   1.00
C1       0.25000    0.25000    0.35520   1.00
O1       0.75000    0.75000    0.25000   1.00
Zn1      0.78280    0.71720    0.21720   1.00
Zn1      0.71720    0.78280    0.21720   1.00
Zn1      0.71720    0.71720    0.28280   1.00
Zn1      0.78280    0.78280    0.28280   1.00
O2       0.77350    0.72650    0.16180   1.00
O2       0.77350    0.66180    0.22650   1.00
O2       0.83820    0.72650    0.22650   1.00
O2       0.72650    0.77350    0.16180   1.00
O2       0.66180    0.77350    0.22650   1.00
O2       0.72650    0.83820    0.22650   1.00
O2       0.72650    0.66180    0.27350   1.00
O2       0.66180    0.72650    0.27350   1.00
O2       0.72650    0.72650    0.33820   1.00
O2       0.83820    0.77350    0.27350   1.00
O2       0.77350    0.83820    0.27350   1.00
O2       0.77350    0.77350    0.33820   1.00
C1       0.75000    0.75000    0.14480   1.00
C1       0.75000    0.64480    0.25000   1.00
C1       0.85520    0.75000    0.25000   1.00
C1       0.64480    0.75000    0.25000   1.00
C1       0.75000    0.85520    0.25000   1.00
C1       0.75000    0.75000    0.35520   1.00
O1       0.75000    0.25000    0.75000   1.00
Zn1      0.78280    0.21720    0.71720   1.00
Zn1      0.71720    0.28280    0.71720   1.00
Zn1      0.71720    0.21720    0.78280   1.00
Zn1      0.78280    0.28280    0.78280   1.00
O2       0.77350    0.22650    0.66180   1.00
O2       0.77350    0.16180    0.72650   1.00
O2       0.83820    0.22650    0.72650   1.00
O2       0.72650    0.27350    0.66180   1.00
O2       0.66180    0.27350    0.72650   1.00
O2       0.72650    0.33820    0.72650   1.00
O2       0.72650    0.16180    0.77350   1.00
O2       0.66180    0.22650    0.77350   1.00
O2       0.72650    0.22650    0.83820   1.00
O2       0.83820    0.27350    0.77350   1.00
O2       0.77350    0.33820    0.77350   1.00
O2       0.77350    0.27350    0.83820   1.00
C1       0.75000    0.25000    0.64480   1.00
C1       0.75000    0.14480    0.75000   1.00
C1       0.85520    0.25000    0.75000   1.00
C1       0.64480    0.25000    0.75000   1.00
C1       0.75000    0.35520    0.75000   1.00
C1       0.75000    0.25000    0.85520   1.00
O1       0.25000    0.75000    0.75000   1.00
Zn1      0.28280    0.71720    0.71720   1.00
Zn1      0.21720    0.78280    0.71720   1.00
Zn1      0.21720    0.71720    0.78280   1.00
Zn1      0.28280    0.78280    0.78280   1.00
O2       0.27350    0.72650    0.66180   1.00
O2       0.27350    0.66180    0.72650   1.00
O2       0.33820    0.72650    0.72650   1.00
O2       0.22650    0.77350    0.66180   1.00
O2       0.16180    0.77350    0.72650   1.00
O2       0.22650    0.83820    0.72650   1.00
O2       0.22650    0.66180    0.77350   1.00
O2       0.16180    0.72650    0.77350   1.00
O2       0.22650    0.72650    0.83820   1.00
O2       0.33820    0.77350    0.77350   1.00
O2       0.27350    0.83820    0.77350   1.00
O2       0.27350    0.77350    0.83820   1.00
C1       0.25000    0.75000    0.64480   1.00
C1       0.25000    0.64480    0.75000   1.00
C1       0.35520    0.75000    0.75000   1.00
C1       0.14480    0.75000    0.75000   1.00
C1       0.25000    0.85520    0.75000   1.00
C1       0.25000    0.75000    0.85520   1.00
O1       0.91500    0.91500    0.91500   1.00
Zn1      0.88220    0.94780    0.94780   1.00
Zn1      0.94780    0.88220    0.94780   1.00
Zn1      0.94780    0.94780    0.88220   1.00
Zn1      0.88220    0.88220    0.88220   1.00
O2       0.89150    0.93850    1.00320   1.00
O2       0.89150    1.00320    0.93850   1.00
O2       0.82680    0.93850    0.93850   1.00
O2       0.93850    0.89150    1.00320   1.00
O2       1.00320    0.89150    0.93850   1.00
O2       0.93850    0.82680    0.93850   1.00
O2       0.93850    1.00320    0.89150   1.00
O2       1.00320    0.93850    0.89150   1.00
O2       0.93850    0.93850    0.82680   1.00
O2       0.82680    0.89150    0.89150   1.00
O2       0.89150    0.82680    0.89150   1.00
O2       0.89150    0.89150    0.82680   1.00
C1       0.91500    0.91500    1.02020   1.00
C1       0.91500    1.02020    0.91500   1.00
C1       0.80980    0.91500    0.91500   1.00
C1       1.02020    0.91500    0.91500   1.00
C1       0.91500    0.80980    0.91500   1.00
C1       0.91500    0.91500    0.80980   1.00
O1       0.41500    0.41500    0.91500   1.00
Zn1      0.38220    0.44780    0.94780   1.00
Zn1      0.44780    0.38220    0.94780   1.00
Zn1      0.44780    0.44780    0.88220   1.00
Zn1      0.38220    0.38220    0.88220   1.00
O2       0.39150    0.43850    1.00320   1.00
O2       0.39150    0.50320    0.93850   1.00
O2       0.32680    0.43850    0.93850   1.00
O2       0.43850    0.39150    1.00320   1.00
O2       0.50320    0.39150    0.93850   1.00
O2       0.43850    0.32680    0.93850   1.00
O2       0.43850    0.50320    0.89150   1.00
O2       0.50320    0.43850    0.89150   1.00
O2       0.43850    0.43850    0.82680   1.00
O2       0.32680    0.39150    0.89150   1.00
O2       0.39150    0.32680    0.89150   1.00
O2       0.39150    0.39150    0.82680   1.00
C1       0.41500    0.41500    1.02020   1.00
C1       0.41500    0.52020    0.91500   1.00
C1       0.30980    0.41500    0.91500   1.00
C1       0.52020    0.41500    0.91500   1.00
C1       0.41500    0.30980    0.91500   1.00
C1       0.41500    0.41500    0.80980   1.00
O1       0.41500    0.91500    0.41500   1.00
Zn1      0.38220    0.94780    0.44780   1.00
Zn1      0.44780    0.88220    0.44780   1.00
Zn1      0.44780    0.94780    0.38220   1.00
Zn1      0.38220    0.88220    0.38220   1.00
O2       0.39150    0.93850    0.50320   1.00
O2       0.39150    1.00320    0.43850   1.00
O2       0.32680    0.93850    0.43850   1.00
O2       0.43850    0.89150    0.50320   1.00
O2       0.50320    0.89150    0.43850   1.00
O2       0.43850    0.82680    0.43850   1.00
O2       0.43850    1.00320    0.39150   1.00
O2       0.50320    0.93850    0.39150   1.00
O2       0.43850    0.93850    0.32680   1.00
O2       0.32680    0.89150    0.39150   1.00
O2       0.39150    0.82680    0.39150   1.00
O2       0.39150    0.89150    0.32680   1.00
C1       0.41500    0.91500    0.52020   1.00
C1       0.41500    1.02020    0.41500   1.00
C1       0.30980    0.91500    0.41500   1.00
C1       0.52020    0.91500    0.41500   1.00
C1       0.41500    0.80980    0.41500   1.00
C1       0.41500    0.91500    0.30980   1.00
O1       0.91500    0.41500    0.41500   1.00
Zn1      0.88220    0.44780    0.44780   1.00
Zn1      0.94780    0.38220    0.44780   1.00
Zn1      0.94780    0.44780    0.38220   1.00
Zn1      0.88220    0.38220    0.38220   1.00
O2       0.89150    0.43850    0.50320   1.00
O2       0.89150    0.50320    0.43850   1.00
O2       0.82680    0.43850    0.43850   1.00
O2       0.93850    0.39150    0.50320   1.00
O2       1.00320    0.39150    0.43850   1.00
O2       0.93850    0.32680    0.43850   1.00
O2       0.93850    0.50320    0.39150   1.00
O2       1.00320    0.43850    0.39150   1.00
O2       0.93850    0.43850    0.32680   1.00
O2       0.82680    0.39150    0.39150   1.00
O2       0.89150    0.32680    0.39150   1.00
O2       0.89150    0.39150    0.32680   1.00
C1       0.91500    0.41500    0.52020   1.00
C1       0.91500    0.52020    0.41500   1.00
C1       0.80980    0.41500    0.41500   1.00
C1       1.02020    0.41500    0.41500   1.00
C1       0.91500    0.30980    0.41500   1.00
C1       0.91500    0.41500    0.30980   1.00
O1       0.41500    0.41500    0.41500   1.00
Zn1      0.44780    0.38220    0.38220   1.00
Zn1      0.38220    0.44780    0.38220   1.00
Zn1      0.38220    0.38220    0.44780   1.00
Zn1      0.44780    0.44780    0.44780   1.00
O2       0.43850    0.39150    0.32680   1.00
O2       0.43850    0.32680    0.39150   1.00
O2       0.50320    0.39150    0.39150   1.00
O2       0.39150    0.43850    0.32680   1.00
O2       0.32680    0.43850    0.39150   1.00
O2       0.39150    0.50320    0.39150   1.00
O2       0.39150    0.32680    0.43850   1.00
O2       0.32680    0.39150    0.43850   1.00
O2       0.39150    0.39150    0.50320   1.00
O2       0.50320    0.43850    0.43850   1.00
O2       0.43850    0.50320    0.43850   1.00
O2       0.43850    0.43850    0.50320   1.00
C1       0.41500    0.41500    0.30980   1.00
C1       0.41500    0.30980    0.41500   1.00
C1       0.52020    0.41500    0.41500   1.00
C1       0.30980    0.41500    0.41500   1.00
C1       0.41500    0.52020    0.41500   1.00
C1       0.41500    0.41500    0.52020   1.00
O1       0.91500    0.91500    0.41500   1.00
Zn1      0.94780    0.88220    0.38220   1.00
Zn1      0.88220    0.94780    0.38220   1.00
Zn1      0.88220    0.88220    0.44780   1.00
Zn1      0.94780    0.94780    0.44780   1.00
O2       0.93850    0.89150    0.32680   1.00
O2       0.93850    0.82680    0.39150   1.00
O2       1.00320    0.89150    0.39150   1.00
O2       0.89150    0.93850    0.32680   1.00
O2       0.82680    0.93850    0.39150   1.00
O2       0.89150    1.00320    0.39150   1.00
O2       0.89150    0.82680    0.43850   1.00
O2       0.82680    0.89150    0.43850   1.00
O2       0.89150    0.89150    0.50320   1.00
O2       1.00320    0.93850    0.43850   1.00
O2       0.93850    1.00320    0.43850   1.00
O2       0.93850    0.93850    0.50320   1.00
C1       0.91500    0.91500    0.30980   1.00
C1       0.91500    0.80980    0.41500   1.00
C1       1.02020    0.91500    0.41500   1.00
C1       0.80980    0.91500    0.41500   1.00
C1       0.91500    1.02020    0.41500   1.00
C1       0.91500    0.91500    0.52020   1.00
O1       0.91500    0.41500    0.91500   1.00
Zn1      0.94780    0.38220    0.88220   1.00
Zn1      0.88220    0.44780    0.88220   1.00
Zn1      0.88220    0.38220    0.94780   1.00
Zn1      0.94780    0.44780    0.94780   1.00
O2       0.93850    0.39150    0.82680   1.00
O2       0.93850    0.32680    0.89150   1.00
O2       1.00320    0.39150    0.89150   1.00
O2       0.89150    0.43850    0.82680   1.00
O2       0.82680    0.43850    0.89150   1.00
O2       0.89150    0.50320    0.89150   1.00
O2       0.89150    0.32680    0.93850   1.00
O2       0.82680    0.39150    0.93850   1.00
O2       0.89150    0.39150    1.00320   1.00
O2       1.00320    0.43850    0.93850   1.00
O2       0.93850    0.50320    0.93850   1.00
O2       0.93850    0.43850    1.00320   1.00
C1       0.91500    0.41500    0.80980   1.00
C1       0.91500    0.30980    0.91500   1.00
C1       1.02020    0.41500    0.91500   1.00
C1       0.80980    0.41500    0.91500   1.00
C1       0.91500    0.52020    0.91500   1.00
C1       0.91500    0.41500    1.02020   1.00
O1       0.41500    0.91500    0.91500   1.00
Zn1      0.44780    0.88220    0.88220   1.00
Zn1      0.38220    0.94780    0.88220   1.00
Zn1      0.38220    0.88220    0.94780   1.00
Zn1      0.44780    0.94780    0.94780   1.00
O2       0.43850    0.89150    0.82680   1.00
O2       0.43850    0.82680    0.89150   1.00
O2       0.50320    0.89150    0.89150   1.00
O2       0.39150    0.93850    0.82680   1.00
O2       0.32680    0.93850    0.89150   1.00
O2       0.39150    1.00320    0.89150   1.00
O2       0.39150    0.82680    0.93850   1.00
O2       0.32680    0.89150    0.93850   1.00
O2       0.39150    0.89150    1.00320   1.00
O2       0.50320    0.93850    0.93850   1.00
O2       0.43850    1.00320    0.93850   1.00
O2       0.43850    0.93850    1.00320   1.00
C1       0.41500    0.91500    0.80980   1.00
C1       0.41500    0.80980    0.91500   1.00
C1       0.52020    0.91500    0.91500   1.00
C1       0.30980    0.91500    0.91500   1.00
C1       0.41500    1.02020    0.91500   1.00
C1       0.41500    0.91500    1.02020   1.00
C5       0.70130    0.86730    1.13227   1.00
H2       0.68031    0.84791    1.14755   1.00
H2       0.68375    0.88434    1.11099   1.00
C5       0.72087    0.89489    1.16219   1.00
H2       0.70161    0.92017    1.16890   1.00
H2       0.74907    0.90589    1.15040   1.00
O_3      0.80975    0.78790    0.98000   1.00
C4       0.74971    0.74966    1.02100   1.00
C3c      0.73047    0.77881    1.04243   1.00
H1       0.71514    0.80182    1.02725   1.00
C3d      0.76904    0.71962    1.04135   1.00
C3       0.73111    0.77911    1.08354   1.00
O2       0.70774    0.80572    1.10248   1.00
C3       0.77036    0.72026    1.08227   1.00
H1       0.78671    0.69739    1.09657   1.00
C2       0.75142    0.74975    1.10439   1.00
C5       0.84461    0.76597    0.97879   1.00
H2       0.85521    0.76141    0.94838   1.00
H2       0.84059    0.73679    0.99266   1.00
C5       0.87547    0.78857    1.00122   1.00
H2       0.86441    0.79409    1.03129   1.00
H2       0.87950    0.81750    0.98691   1.00
C5       0.91412    0.76604    1.00254   1.00
H2       0.92519    0.76019    0.97260   1.00
H2       0.91042    0.73774    1.01803   1.00
H2       0.93655    0.78339    1.01830   1.00
C5       0.76663    0.66041    1.01105   1.00
C5       0.72927    0.83994    1.11070   1.00
H2       0.74307    0.66996    0.99088   1.00
H2       0.75303    0.64643    1.03712   1.00
H2       0.73942    0.85372    1.08300   1.00
H2       0.75569    0.83401    1.12895   1.00
H2       0.72626    0.87968    1.19055   1.00
H2       0.75224    0.61352    0.94250   1.00
H2       0.74537    0.58655    0.98766   1.00
C2       0.75253    0.74957    0.89605   1.00
C3       0.72105    0.73199    0.91597   1.00
O2       0.69642    0.70660    0.89674   1.00
C3       0.78167    0.76862    0.91826   1.00
H1       0.80561    0.78322    0.90385   1.00
C3a      0.71988    0.73292    0.95713   1.00
H1       0.69677    0.71743    0.97202   1.00
C3b      0.78108    0.76841    0.95922   1.00
C4       0.75008    0.75041    0.97900   1.00
O_3      0.79088    0.69194    1.02167   1.00
C5       0.66111    0.72549    0.88720   1.00
H2       0.64591    0.73634    0.91391   1.00
C5       0.63530    0.69538    0.86666   1.00
H2       0.66637    0.75065    0.86726   1.00
H2       0.62170    0.67637    0.88923   1.00
H2       0.65479    0.67628    0.84899   1.00
C5       0.60370    0.71414    0.84069   1.00
H2       0.58650    0.73541    0.85811   1.00
H2       0.58354    0.69155    0.82891   1.00
H2       0.61687    0.72925    0.81494   1.00
C5       0.79198    0.63047    0.99020   1.00
H2       0.81111    0.61608    1.01218   1.00
H2       0.81150    0.64627    0.96955   1.00
C5       0.76739    0.60010    0.96803   1.00
H2       0.78655    0.57654    0.95666   1.00
C5       0.86730    1.13227    0.70130   1.00
H2       0.84791    1.14755    0.68031   1.00
H2       0.88434    1.11099    0.68375   1.00
C5       0.89489    1.16219    0.72087   1.00
H2       0.92017    1.16890    0.70161   1.00
H2       0.90589    1.15040    0.74907   1.00
O_3      0.78790    0.98000    0.80975   1.00
C4       0.74966    1.02100    0.74971   1.00
C3c      0.77881    1.04243    0.73047   1.00
H1       0.80182    1.02725    0.71514   1.00
C3d      0.71962    1.04135    0.76904   1.00
C3       0.77911    1.08354    0.73111   1.00
O2       0.80572    1.10248    0.70774   1.00
C3       0.72026    1.08227    0.77036   1.00
H1       0.69739    1.09657    0.78671   1.00
C2       0.74975    1.10439    0.75142   1.00
C5       0.76597    0.97879    0.84461   1.00
H2       0.76141    0.94838    0.85521   1.00
H2       0.73679    0.99266    0.84059   1.00
C5       0.78857    1.00122    0.87547   1.00
H2       0.79409    1.03129    0.86441   1.00
H2       0.81750    0.98691    0.87950   1.00
C5       0.76604    1.00254    0.91412   1.00
H2       0.76019    0.97260    0.92519   1.00
H2       0.73774    1.01803    0.91042   1.00
H2       0.78339    1.01830    0.93655   1.00
C5       0.66041    1.01105    0.76663   1.00
C5       0.83994    1.11070    0.72927   1.00
H2       0.66996    0.99088    0.74307   1.00
H2       0.64643    1.03712    0.75303   1.00
H2       0.85372    1.08300    0.73942   1.00
H2       0.83401    1.12895    0.75569   1.00
H2       0.87968    1.19055    0.72626   1.00
H2       0.61352    0.94250    0.75224   1.00
H2       0.58655    0.98766    0.74537   1.00
C2       0.74957    0.89605    0.75253   1.00
C3       0.73199    0.91597    0.72105   1.00
O2       0.70660    0.89674    0.69642   1.00
C3       0.76862    0.91826    0.78167   1.00
H1       0.78322    0.90385    0.80561   1.00
C3a      0.73292    0.95713    0.71988   1.00
H1       0.71743    0.97202    0.69677   1.00
C3b      0.76841    0.95922    0.78108   1.00
C4       0.75041    0.97900    0.75008   1.00
O_3      0.69194    1.02167    0.79088   1.00
C5       0.72549    0.88720    0.66111   1.00
H2       0.73634    0.91391    0.64591   1.00
C5       0.69538    0.86666    0.63530   1.00
H2       0.75065    0.86726    0.66637   1.00
H2       0.67637    0.88923    0.62170   1.00
H2       0.67628    0.84899    0.65479   1.00
C5       0.71414    0.84069    0.60370   1.00
H2       0.73541    0.85811    0.58650   1.00
H2       0.69155    0.82891    0.58354   1.00
H2       0.72925    0.81494    0.61687   1.00
C5       0.63047    0.99020    0.79198   1.00
H2       0.61608    1.01218    0.81111   1.00
H2       0.64627    0.96955    0.81150   1.00
C5       0.60010    0.96803    0.76739   1.00
H2       0.57654    0.95666    0.78655   1.00
C5       0.36773    0.70130    0.63270   1.00
H2       0.35245    0.68031    0.65209   1.00
H2       0.38901    0.68375    0.61566   1.00
C5       0.33781    0.72087    0.60511   1.00
H2       0.33110    0.70161    0.57983   1.00
H2       0.34960    0.74907    0.59411   1.00
O_3      0.52000    0.80975    0.71210   1.00
C4       0.47900    0.74971    0.75034   1.00
C3c      0.45757    0.73047    0.72119   1.00
H1       0.47275    0.71514    0.69818   1.00
C3d      0.45865    0.76904    0.78038   1.00
C3       0.41646    0.73111    0.72089   1.00
O2       0.39752    0.70774    0.69428   1.00
C3       0.41773    0.77036    0.77974   1.00
H1       0.40343    0.78671    0.80261   1.00
C2       0.39561    0.75142    0.75025   1.00
C5       0.52121    0.84461    0.73403   1.00
H2       0.55162    0.85521    0.73859   1.00
H2       0.50734    0.84059    0.76321   1.00
C5       0.49878    0.87547    0.71143   1.00
H2       0.46871    0.86441    0.70591   1.00
H2       0.51309    0.87950    0.68250   1.00
C5       0.49746    0.91412    0.73396   1.00
H2       0.52740    0.92519    0.73981   1.00
H2       0.48197    0.91042    0.76226   1.00
H2       0.48170    0.93655    0.71661   1.00
C5       0.48895    0.76663    0.83959   1.00
C5       0.38930    0.72927    0.66006   1.00
H2       0.50912    0.74307    0.83004   1.00
H2       0.46288    0.75303    0.85357   1.00
H2       0.41700    0.73942    0.64628   1.00
H2       0.37105    0.75569    0.66599   1.00
H2       0.30945    0.72626    0.62032   1.00
H2       0.55750    0.75224    0.88648   1.00
H2       0.51234    0.74537    0.91345   1.00
C2       0.60395    0.75253    0.75043   1.00
C3       0.58403    0.72105    0.76801   1.00
O2       0.60326    0.69642    0.79340   1.00
C3       0.58174    0.78167    0.73138   1.00
H1       0.59615    0.80561    0.71678   1.00
C3a      0.54287    0.71988    0.76708   1.00
H1       0.52798    0.69677    0.78257   1.00
C3b      0.54078    0.78108    0.73159   1.00
C4       0.52100    0.75008    0.74959   1.00
O_3      0.47833    0.79088    0.80806   1.00
C5       0.61280    0.66111    0.77451   1.00
H2       0.58609    0.64591    0.76366   1.00
C5       0.63334    0.63530    0.80462   1.00
H2       0.63274    0.66637    0.74935   1.00
H2       0.61077    0.62170    0.82363   1.00
H2       0.65101    0.65479    0.82372   1.00
C5       0.65931    0.60370    0.78586   1.00
H2       0.64189    0.58650    0.76459   1.00
H2       0.67109    0.58354    0.80845   1.00
H2       0.68506    0.61687    0.77075   1.00
C5       0.50980    0.79198    0.86953   1.00
H2       0.48782    0.81111    0.88392   1.00
H2       0.53045    0.81150    0.85373   1.00
C5       0.53197    0.76739    0.89990   1.00
H2       0.54334    0.78655    0.92346   1.00
C5       1.13227    0.70130    0.86730   1.00
H2       1.14755    0.68031    0.84791   1.00
H2       1.11099    0.68375    0.88434   1.00
C5       1.16219    0.72087    0.89489   1.00
H2       1.16890    0.70161    0.92017   1.00
H2       1.15040    0.74907    0.90589   1.00
O_3      0.98000    0.80975    0.78790   1.00
C4       1.02100    0.74971    0.74966   1.00
C3c      1.04243    0.73047    0.77881   1.00
H1       1.02725    0.71514    0.80182   1.00
C3d      1.04135    0.76904    0.71962   1.00
C3       1.08354    0.73111    0.77911   1.00
O2       1.10248    0.70774    0.80572   1.00
C3       1.08227    0.77036    0.72026   1.00
H1       1.09657    0.78671    0.69739   1.00
C2       1.10439    0.75142    0.74975   1.00
C5       0.97879    0.84461    0.76597   1.00
H2       0.94838    0.85521    0.76141   1.00
H2       0.99266    0.84059    0.73679   1.00
C5       1.00122    0.87547    0.78857   1.00
H2       1.03129    0.86441    0.79409   1.00
H2       0.98691    0.87950    0.81750   1.00
C5       1.00254    0.91412    0.76604   1.00
H2       0.97260    0.92519    0.76019   1.00
H2       1.01803    0.91042    0.73774   1.00
H2       1.01830    0.93655    0.78339   1.00
C5       1.01105    0.76663    0.66041   1.00
C5       1.11070    0.72927    0.83994   1.00
H2       0.99088    0.74307    0.66996   1.00
H2       1.03712    0.75303    0.64643   1.00
H2       1.08300    0.73942    0.85372   1.00
H2       1.12895    0.75569    0.83401   1.00
H2       1.19055    0.72626    0.87968   1.00
H2       0.94250    0.75224    0.61352   1.00
H2       0.98766    0.74537    0.58655   1.00
C2       0.89605    0.75253    0.74957   1.00
C3       0.91597    0.72105    0.73199   1.00
O2       0.89674    0.69642    0.70660   1.00
C3       0.91826    0.78167    0.76862   1.00
H1       0.90385    0.80561    0.78322   1.00
C3a      0.95713    0.71988    0.73292   1.00
H1       0.97202    0.69677    0.71743   1.00
C3b      0.95922    0.78108    0.76841   1.00
C4       0.97900    0.75008    0.75041   1.00
O_3      1.02167    0.79088    0.69194   1.00
C5       0.88720    0.66111    0.72549   1.00
H2       0.91391    0.64591    0.73634   1.00
C5       0.86666    0.63530    0.69538   1.00
H2       0.86726    0.66637    0.75065   1.00
H2       0.88923    0.62170    0.67637   1.00
H2       0.84899    0.65479    0.67628   1.00
C5       0.84069    0.60370    0.71414   1.00
H2       0.85811    0.58650    0.73541   1.00
H2       0.82891    0.58354    0.69155   1.00
H2       0.81494    0.61687    0.72925   1.00
C5       0.99020    0.79198    0.63047   1.00
H2       1.01218    0.81111    0.61608   1.00
H2       0.96955    0.81150    0.64627   1.00
C5       0.96803    0.76739    0.60010   1.00
H2       0.95666    0.78655    0.57654   1.00
C5       0.63270    0.36773    0.70130   1.00
H2       0.65209    0.35245    0.68031   1.00
H2       0.61566    0.38901    0.68375   1.00
C5       0.60511    0.33781    0.72087   1.00
H2       0.57983    0.33110    0.70161   1.00
H2       0.59411    0.34960    0.74907   1.00
O_3      0.71210    0.52000    0.80975   1.00
C4       0.75034    0.47900    0.74971   1.00
C3c      0.72119    0.45757    0.73047   1.00
H1       0.69818    0.47275    0.71514   1.00
C3d      0.78038    0.45865    0.76904   1.00
C3       0.72089    0.41646    0.73111   1.00
O2       0.69428    0.39752    0.70774   1.00
C3       0.77974    0.41773    0.77036   1.00
H1       0.80261    0.40343    0.78671   1.00
C2       0.75025    0.39561    0.75142   1.00
C5       0.73403    0.52121    0.84461   1.00
H2       0.73859    0.55162    0.85521   1.00
H2       0.76321    0.50734    0.84059   1.00
C5       0.71143    0.49878    0.87547   1.00
H2       0.70591    0.46871    0.86441   1.00
H2       0.68250    0.51309    0.87950   1.00
C5       0.73396    0.49746    0.91412   1.00
H2       0.73981    0.52740    0.92519   1.00
H2       0.76226    0.48197    0.91042   1.00
H2       0.71661    0.48170    0.93655   1.00
C5       0.83959    0.48895    0.76663   1.00
C5       0.66006    0.38930    0.72927   1.00
H2       0.83004    0.50912    0.74307   1.00
H2       0.85357    0.46288    0.75303   1.00
H2       0.64628    0.41700    0.73942   1.00
H2       0.66599    0.37105    0.75569   1.00
H2       0.62032    0.30945    0.72626   1.00
H2       0.88648    0.55750    0.75224   1.00
H2       0.91345    0.51234    0.74537   1.00
C2       0.75043    0.60395    0.75253   1.00
C3       0.76801    0.58403    0.72105   1.00
O2       0.79340    0.60326    0.69642   1.00
C3       0.73138    0.58174    0.78167   1.00
H1       0.71678    0.59615    0.80561   1.00
C3a      0.76708    0.54287    0.71988   1.00
H1       0.78257    0.52798    0.69677   1.00
C3b      0.73159    0.54078    0.78108   1.00
C4       0.74959    0.52100    0.75008   1.00
O_3      0.80806    0.47833    0.79088   1.00
C5       0.77451    0.61280    0.66111   1.00
H2       0.76366    0.58609    0.64591   1.00
C5       0.80462    0.63334    0.63530   1.00
H2       0.74935    0.63274    0.66637   1.00
H2       0.82363    0.61077    0.62170   1.00
H2       0.82372    0.65101    0.65479   1.00
C5       0.78586    0.65931    0.60370   1.00
H2       0.76459    0.64189    0.58650   1.00
H2       0.80845    0.67109    0.58354   1.00
H2       0.77075    0.68506    0.61687   1.00
C5       0.86953    0.50980    0.79198   1.00
H2       0.88392    0.48782    0.81111   1.00
H2       0.85373    0.53045    0.81150   1.00
C5       0.89990    0.53197    0.76739   1.00
H2       0.92346    0.54334    0.78655   1.00
C5       0.70130    0.63270    0.36773   1.00
H2       0.68031    0.65209    0.35245   1.00
H2       0.68375    0.61566    0.38901   1.00
C5       0.72087    0.60511    0.33781   1.00
H2       0.70161    0.57983    0.33110   1.00
H2       0.74907    0.59411    0.34960   1.00
O_3      0.80975    0.71210    0.52000   1.00
C4       0.74971    0.75034    0.47900   1.00
C3c      0.73047    0.72119    0.45757   1.00
H1       0.71514    0.69818    0.47275   1.00
C3d      0.76904    0.78038    0.45865   1.00
C3       0.73111    0.72089    0.41646   1.00
O2       0.70774    0.69428    0.39752   1.00
C3       0.77036    0.77974    0.41773   1.00
H1       0.78671    0.80261    0.40343   1.00
C2       0.75142    0.75025    0.39561   1.00
C5       0.84461    0.73403    0.52121   1.00
H2       0.85521    0.73859    0.55162   1.00
H2       0.84059    0.76321    0.50734   1.00
C5       0.87547    0.71143    0.49878   1.00
H2       0.86441    0.70591    0.46871   1.00
H2       0.87950    0.68250    0.51309   1.00
C5       0.91412    0.73396    0.49746   1.00
H2       0.92519    0.73981    0.52740   1.00
H2       0.91042    0.76226    0.48197   1.00
H2       0.93655    0.71661    0.48170   1.00
C5       0.76663    0.83959    0.48895   1.00
C5       0.72927    0.66006    0.38930   1.00
H2       0.74307    0.83004    0.50912   1.00
H2       0.75303    0.85357    0.46288   1.00
H2       0.73942    0.64628    0.41700   1.00
H2       0.75569    0.66599    0.37105   1.00
H2       0.72626    0.62032    0.30945   1.00
H2       0.75224    0.88648    0.55750   1.00
H2       0.74537    0.91345    0.51234   1.00
C2       0.75253    0.75043    0.60395   1.00
C3       0.72105    0.76801    0.58403   1.00
O2       0.69642    0.79340    0.60326   1.00
C3       0.78167    0.73138    0.58174   1.00
H1       0.80561    0.71678    0.59615   1.00
C3a      0.71988    0.76708    0.54287   1.00
H1       0.69677    0.78257    0.52798   1.00
C3b      0.78108    0.73159    0.54078   1.00
C4       0.75008    0.74959    0.52100   1.00
O_3      0.79088    0.80806    0.47833   1.00
C5       0.66111    0.77451    0.61280   1.00
H2       0.64591    0.76366    0.58609   1.00
C5       0.63530    0.80462    0.63334   1.00
H2       0.66637    0.74935    0.63274   1.00
H2       0.62170    0.82363    0.61077   1.00
H2       0.65479    0.82372    0.65101   1.00
C5       0.60370    0.78586    0.65931   1.00
H2       0.58650    0.76459    0.64189   1.00
H2       0.58354    0.80845    0.67109   1.00
H2       0.61687    0.77075    0.68506   1.00
C5       0.79198    0.86953    0.50980   1.00
H2       0.81111    0.88392    0.48782   1.00
H2       0.81150    0.85373    0.53045   1.00
C5       0.76739    0.89990    0.53197   1.00
H2       0.78655    0.92346    0.54334   1.00
C5       0.20130    0.36730    1.13227   1.00
H2       0.18031    0.34791    1.14755   1.00
H2       0.18375    0.38434    1.11099   1.00
C5       0.22087    0.39489    1.16219   1.00
H2       0.20161    0.42017    1.16890   1.00
H2       0.24907    0.40589    1.15040   1.00
O_3      0.30975    0.28790    0.98000   1.00
C4       0.24971    0.24966    1.02100   1.00
C3c      0.23047    0.27881    1.04243   1.00
H1       0.21514    0.30182    1.02725   1.00
C3d      0.26904    0.21962    1.04135   1.00
C3       0.23111    0.27911    1.08354   1.00
O2       0.20774    0.30572    1.10248   1.00
C3       0.27036    0.22026    1.08227   1.00
H1       0.28671    0.19739    1.09657   1.00
C2       0.25142    0.24975    1.10439   1.00
C5       0.34461    0.26597    0.97879   1.00
H2       0.35521    0.26141    0.94838   1.00
H2       0.34059    0.23679    0.99266   1.00
C5       0.37547    0.28857    1.00122   1.00
H2       0.36441    0.29409    1.03129   1.00
H2       0.37950    0.31750    0.98691   1.00
C5       0.41412    0.26604    1.00254   1.00
H2       0.42519    0.26019    0.97260   1.00
H2       0.41042    0.23774    1.01803   1.00
H2       0.43655    0.28339    1.01830   1.00
C5       0.26663    0.16041    1.01105   1.00
C5       0.22927    0.33994    1.11070   1.00
H2       0.24307    0.16996    0.99088   1.00
H2       0.25303    0.14643    1.03712   1.00
H2       0.23942    0.35372    1.08300   1.00
H2       0.25569    0.33401    1.12895   1.00
H2       0.22626    0.37968    1.19055   1.00
H2       0.25224    0.11352    0.94250   1.00
H2       0.24537    0.08655    0.98766   1.00
C2       0.25253    0.24957    0.89605   1.00
C3       0.22105    0.23199    0.91597   1.00
O2       0.19642    0.20660    0.89674   1.00
C3       0.28167    0.26862    0.91826   1.00
H1       0.30561    0.28322    0.90385   1.00
C3a      0.21988    0.23292    0.95713   1.00
H1       0.19677    0.21743    0.97202   1.00
C3b      0.28108    0.26841    0.95922   1.00
C4       0.25008    0.25041    0.97900   1.00
O_3      0.29088    0.19194    1.02167   1.00
C5       0.16111    0.22549    0.88720   1.00
H2       0.14591    0.23634    0.91391   1.00
C5       0.13530    0.19538    0.86666   1.00
H2       0.16637    0.25065    0.86726   1.00
H2       0.12170    0.17637    0.88923   1.00
H2       0.15479    0.17628    0.84899   1.00
C5       0.10370    0.21414    0.84069   1.00
H2       0.08650    0.23541    0.85811   1.00
H2       0.08354    0.19155    0.82891   1.00
H2       0.11687    0.22925    0.81494   1.00
C5       0.29198    0.13047    0.99020   1.00
H2       0.31111    0.11608    1.01218   1.00
H2       0.31150    0.14627    0.96955   1.00
C5       0.26739    0.10010    0.96803   1.00
H2       0.28655    0.07654    0.95666   1.00
C5       0.36730    0.63227    0.70130   1.00
H2       0.34791    0.64755    0.68031   1.00
H2       0.38434    0.61099    0.68375   1.00
C5       0.39489    0.66219    0.72087   1.00
H2       0.42017    0.66890    0.70161   1.00
H2       0.40589    0.65040    0.74907   1.00
O_3      0.28790    0.48000    0.80975   1.00
C4       0.24966    0.52100    0.74971   1.00
C3c      0.27881    0.54243    0.73047   1.00
H1       0.30182    0.52725    0.71514   1.00
C3d      0.21962    0.54135    0.76904   1.00
C3       0.27911    0.58354    0.73111   1.00
O2       0.30572    0.60248    0.70774   1.00
C3       0.22026    0.58227    0.77036   1.00
H1       0.19739    0.59657    0.78671   1.00
C2       0.24975    0.60439    0.75142   1.00
C5       0.26597    0.47879    0.84461   1.00
H2       0.26141    0.44838    0.85521   1.00
H2       0.23679    0.49266    0.84059   1.00
C5       0.28857    0.50122    0.87547   1.00
H2       0.29409    0.53129    0.86441   1.00
H2       0.31750    0.48691    0.87950   1.00
C5       0.26604    0.50254    0.91412   1.00
H2       0.26019    0.47260    0.92519   1.00
H2       0.23774    0.51803    0.91042   1.00
H2       0.28339    0.51830    0.93655   1.00
C5       0.16041    0.51105    0.76663   1.00
C5       0.33994    0.61070    0.72927   1.00
H2       0.16996    0.49088    0.74307   1.00
H2       0.14643    0.53712    0.75303   1.00
H2       0.35372    0.58300    0.73942   1.00
H2       0.33401    0.62895    0.75569   1.00
H2       0.37968    0.69055    0.72626   1.00
H2       0.11352    0.44250    0.75224   1.00
H2       0.08655    0.48766    0.74537   1.00
C2       0.24957    0.39605    0.75253   1.00
C3       0.23199    0.41597    0.72105   1.00
O2       0.20660    0.39674    0.69642   1.00
C3       0.26862    0.41826    0.78167   1.00
H1       0.28322    0.40385    0.80561   1.00
C3a      0.23292    0.45713    0.71988   1.00
H1       0.21743    0.47202    0.69677   1.00
C3b      0.26841    0.45922    0.78108   1.00
C4       0.25041    0.47900    0.75008   1.00
O_3      0.19194    0.52167    0.79088   1.00
C5       0.22549    0.38720    0.66111   1.00
H2       0.23634    0.41391    0.64591   1.00
C5       0.19538    0.36666    0.63530   1.00
H2       0.25065    0.36726    0.66637   1.00
H2       0.17637    0.38923    0.62170   1.00
H2       0.17628    0.34899    0.65479   1.00
C5       0.21414    0.34069    0.60370   1.00
H2       0.23541    0.35811    0.58650   1.00
H2       0.19155    0.32891    0.58354   1.00
H2       0.22925    0.31494    0.61687   1.00
C5       0.13047    0.49020    0.79198   1.00
H2       0.11608    0.51218    0.81111   1.00
H2       0.14627    0.46955    0.81150   1.00
C5       0.10010    0.46803    0.76739   1.00
H2       0.07654    0.45666    0.78655   1.00
C5       -0.13227   0.20130    0.63270   1.00
H2       -0.14755   0.18031    0.65209   1.00
H2       -0.11099   0.18375    0.61566   1.00
C5       -0.16219   0.22087    0.60511   1.00
H2       -0.16890   0.20161    0.57983   1.00
H2       -0.15040   0.24907    0.59411   1.00
O_3      0.02000    0.30975    0.71210   1.00
C4       -0.02100   0.24971    0.75034   1.00
C3c      -0.04243   0.23047    0.72119   1.00
H1       -0.02725   0.21514    0.69818   1.00
C3d      -0.04135   0.26904    0.78038   1.00
C3       -0.08354   0.23111    0.72089   1.00
O2       -0.10248   0.20774    0.69428   1.00
C3       -0.08227   0.27036    0.77974   1.00
H1       -0.09657   0.28671    0.80261   1.00
C2       -0.10439   0.25142    0.75025   1.00
C5       0.02121    0.34461    0.73403   1.00
H2       0.05162    0.35521    0.73859   1.00
H2       0.00734    0.34059    0.76321   1.00
C5       -0.00122   0.37547    0.71143   1.00
H2       -0.03129   0.36441    0.70591   1.00
H2       0.01309    0.37950    0.68250   1.00
C5       -0.00254   0.41412    0.73396   1.00
H2       0.02740    0.42519    0.73981   1.00
H2       -0.01803   0.41042    0.76226   1.00
H2       -0.01830   0.43655    0.71661   1.00
C5       -0.01105   0.26663    0.83959   1.00
C5       -0.11070   0.22927    0.66006   1.00
H2       0.00912    0.24307    0.83004   1.00
H2       -0.03712   0.25303    0.85357   1.00
H2       -0.08300   0.23942    0.64628   1.00
H2       -0.12895   0.25569    0.66599   1.00
H2       -0.19055   0.22626    0.62032   1.00
H2       0.05750    0.25224    0.88648   1.00
H2       0.01234    0.24537    0.91345   1.00
C2       0.10395    0.25253    0.75043   1.00
C3       0.08403    0.22105    0.76801   1.00
O2       0.10326    0.19642    0.79340   1.00
C3       0.08174    0.28167    0.73138   1.00
H1       0.09615    0.30561    0.71678   1.00
C3a      0.04287    0.21988    0.76708   1.00
H1       0.02798    0.19677    0.78257   1.00
C3b      0.04078    0.28108    0.73159   1.00
C4       0.02100    0.25008    0.74959   1.00
O_3      -0.02167   0.29088    0.80806   1.00
C5       0.11280    0.16111    0.77451   1.00
H2       0.08609    0.14591    0.76366   1.00
C5       0.13334    0.13530    0.80462   1.00
H2       0.13274    0.16637    0.74935   1.00
H2       0.11077    0.12170    0.82363   1.00
H2       0.15101    0.15479    0.82372   1.00
C5       0.15931    0.10370    0.78586   1.00
H2       0.14189    0.08650    0.76459   1.00
H2       0.17109    0.08354    0.80845   1.00
H2       0.18506    0.11687    0.77075   1.00
C5       0.00980    0.29198    0.86953   1.00
H2       -0.01218   0.31111    0.88392   1.00
H2       0.03045    0.31150    0.85373   1.00
C5       0.03197    0.26739    0.89990   1.00
H2       0.04334    0.28655    0.92346   1.00
C5       0.63227    0.20130    0.86730   1.00
H2       0.64755    0.18031    0.84791   1.00
H2       0.61099    0.18375    0.88434   1.00
C5       0.66219    0.22087    0.89489   1.00
H2       0.66890    0.20161    0.92017   1.00
H2       0.65040    0.24907    0.90589   1.00
O_3      0.48000    0.30975    0.78790   1.00
C4       0.52100    0.24971    0.74966   1.00
C3c      0.54243    0.23047    0.77881   1.00
H1       0.52725    0.21514    0.80182   1.00
C3d      0.54135    0.26904    0.71962   1.00
C3       0.58354    0.23111    0.77911   1.00
O2       0.60248    0.20774    0.80572   1.00
C3       0.58227    0.27036    0.72026   1.00
H1       0.59657    0.28671    0.69739   1.00
C2       0.60439    0.25142    0.74975   1.00
C5       0.47879    0.34461    0.76597   1.00
H2       0.44838    0.35521    0.76141   1.00
H2       0.49266    0.34059    0.73679   1.00
C5       0.50122    0.37547    0.78857   1.00
H2       0.53129    0.36441    0.79409   1.00
H2       0.48691    0.37950    0.81750   1.00
C5       0.50254    0.41412    0.76604   1.00
H2       0.47260    0.42519    0.76019   1.00
H2       0.51803    0.41042    0.73774   1.00
H2       0.51830    0.43655    0.78339   1.00
C5       0.51105    0.26663    0.66041   1.00
C5       0.61070    0.22927    0.83994   1.00
H2       0.49088    0.24307    0.66996   1.00
H2       0.53712    0.25303    0.64643   1.00
H2       0.58300    0.23942    0.85372   1.00
H2       0.62895    0.25569    0.83401   1.00
H2       0.69055    0.22626    0.87968   1.00
H2       0.44250    0.25224    0.61352   1.00
H2       0.48766    0.24537    0.58655   1.00
C2       0.39605    0.25253    0.74957   1.00
C3       0.41597    0.22105    0.73199   1.00
O2       0.39674    0.19642    0.70660   1.00
C3       0.41826    0.28167    0.76862   1.00
H1       0.40385    0.30561    0.78322   1.00
C3a      0.45713    0.21988    0.73292   1.00
H1       0.47202    0.19677    0.71743   1.00
C3b      0.45922    0.28108    0.76841   1.00
C4       0.47900    0.25008    0.75041   1.00
O_3      0.52167    0.29088    0.69194   1.00
C5       0.38720    0.16111    0.72549   1.00
H2       0.41391    0.14591    0.73634   1.00
C5       0.36666    0.13530    0.69538   1.00
H2       0.36726    0.16637    0.75065   1.00
H2       0.38923    0.12170    0.67637   1.00
H2       0.34899    0.15479    0.67628   1.00
C5       0.34069    0.10370    0.71414   1.00
H2       0.35811    0.08650    0.73541   1.00
H2       0.32891    0.08354    0.69155   1.00
H2       0.31494    0.11687    0.72925   1.00
C5       0.49020    0.29198    0.63047   1.00
H2       0.51218    0.31111    0.61608   1.00
H2       0.46955    0.31150    0.64627   1.00
C5       0.46803    0.26739    0.60010   1.00
H2       0.45666    0.28655    0.57654   1.00
C5       0.13270    -0.13227   0.70130   1.00
H2       0.15209    -0.14755   0.68031   1.00
H2       0.11566    -0.11099   0.68375   1.00
C5       0.10511    -0.16219   0.72087   1.00
H2       0.07983    -0.16890   0.70161   1.00
H2       0.09411    -0.15040   0.74907   1.00
O_3      0.21210    0.02000    0.80975   1.00
C4       0.25034    -0.02100   0.74971   1.00
C3c      0.22119    -0.04243   0.73047   1.00
H1       0.19818    -0.02725   0.71514   1.00
C3d      0.28038    -0.04135   0.76904   1.00
C3       0.22089    -0.08354   0.73111   1.00
O2       0.19428    -0.10248   0.70774   1.00
C3       0.27974    -0.08227   0.77036   1.00
H1       0.30261    -0.09657   0.78671   1.00
C2       0.25025    -0.10439   0.75142   1.00
C5       0.23403    0.02121    0.84461   1.00
H2       0.23859    0.05162    0.85521   1.00
H2       0.26321    0.00734    0.84059   1.00
C5       0.21143    -0.00122   0.87547   1.00
H2       0.20591    -0.03129   0.86441   1.00
H2       0.18250    0.01309    0.87950   1.00
C5       0.23396    -0.00254   0.91412   1.00
H2       0.23981    0.02740    0.92519   1.00
H2       0.26226    -0.01803   0.91042   1.00
H2       0.21661    -0.01830   0.93655   1.00
C5       0.33959    -0.01105   0.76663   1.00
C5       0.16006    -0.11070   0.72927   1.00
H2       0.33004    0.00912    0.74307   1.00
H2       0.35357    -0.03712   0.75303   1.00
H2       0.14628    -0.08300   0.73942   1.00
H2       0.16599    -0.12895   0.75569   1.00
H2       0.12032    -0.19055   0.72626   1.00
H2       0.38648    0.05750    0.75224   1.00
H2       0.41345    0.01234    0.74537   1.00
C2       0.25043    0.10395    0.75253   1.00
C3       0.26801    0.08403    0.72105   1.00
O2       0.29340    0.10326    0.69642   1.00
C3       0.23138    0.08174    0.78167   1.00
H1       0.21678    0.09615    0.80561   1.00
C3a      0.26708    0.04287    0.71988   1.00
H1       0.28257    0.02798    0.69677   1.00
C3b      0.23159    0.04078    0.78108   1.00
C4       0.24959    0.02100    0.75008   1.00
O_3      0.30806    -0.02167   0.79088   1.00
C5       0.27451    0.11280    0.66111   1.00
H2       0.26366    0.08609    0.64591   1.00
C5       0.30462    0.13334    0.63530   1.00
H2       0.24935    0.13274    0.66637   1.00
H2       0.32363    0.11077    0.62170   1.00
H2       0.32372    0.15101    0.65479   1.00
C5       0.28586    0.15931    0.60370   1.00
H2       0.26459    0.14189    0.58650   1.00
H2       0.30845    0.17109    0.58354   1.00
H2       0.27075    0.18506    0.61687   1.00
C5       0.36953    0.00980    0.79198   1.00
H2       0.38392    -0.01218   0.81111   1.00
H2       0.35373    0.03045    0.81150   1.00
C5       0.39990    0.03197    0.76739   1.00
H2       0.42346    0.04334    0.78655   1.00
C5       0.20130    0.13270    0.36773   1.00
H2       0.18031    0.15209    0.35245   1.00
H2       0.18375    0.11566    0.38901   1.00
C5       0.22087    0.10511    0.33781   1.00
H2       0.20161    0.07983    0.33110   1.00
H2       0.24907    0.09411    0.34960   1.00
O_3      0.30975    0.21210    0.52000   1.00
C4       0.24971    0.25034    0.47900   1.00
C3c      0.23047    0.22119    0.45757   1.00
H1       0.21514    0.19818    0.47275   1.00
C3d      0.26904    0.28038    0.45865   1.00
C3       0.23111    0.22089    0.41646   1.00
O2       0.20774    0.19428    0.39752   1.00
C3       0.27036    0.27974    0.41773   1.00
H1       0.28671    0.30261    0.40343   1.00
C2       0.25142    0.25025    0.39561   1.00
C5       0.34461    0.23403    0.52121   1.00
H2       0.35521    0.23859    0.55162   1.00
H2       0.34059    0.26321    0.50734   1.00
C5       0.37547    0.21143    0.49878   1.00
H2       0.36441    0.20591    0.46871   1.00
H2       0.37950    0.18250    0.51309   1.00
C5       0.41412    0.23396    0.49746   1.00
H2       0.42519    0.23981    0.52740   1.00
H2       0.41042    0.26226    0.48197   1.00
H2       0.43655    0.21661    0.48170   1.00
C5       0.26663    0.33959    0.48895   1.00
C5       0.22927    0.16006    0.38930   1.00
H2       0.24307    0.33004    0.50912   1.00
H2       0.25303    0.35357    0.46288   1.00
H2       0.23942    0.14628    0.41700   1.00
H2       0.25569    0.16599    0.37105   1.00
H2       0.22626    0.12032    0.30945   1.00
H2       0.25224    0.38648    0.55750   1.00
H2       0.24537    0.41345    0.51234   1.00
C2       0.25253    0.25043    0.60395   1.00
C3       0.22105    0.26801    0.58403   1.00
O2       0.19642    0.29340    0.60326   1.00
C3       0.28167    0.23138    0.58174   1.00
H1       0.30561    0.21678    0.59615   1.00
C3a      0.21988    0.26708    0.54287   1.00
H1       0.19677    0.28257    0.52798   1.00
C3b      0.28108    0.23159    0.54078   1.00
C4       0.25008    0.24959    0.52100   1.00
O_3      0.29088    0.30806    0.47833   1.00
C5       0.16111    0.27451    0.61280   1.00
H2       0.14591    0.26366    0.58609   1.00
C5       0.13530    0.30462    0.63334   1.00
H2       0.16637    0.24935    0.63274   1.00
H2       0.12170    0.32363    0.61077   1.00
H2       0.15479    0.32372    0.65101   1.00
C5       0.10370    0.28586    0.65931   1.00
H2       0.08650    0.26459    0.64189   1.00
H2       0.08354    0.30845    0.67109   1.00
H2       0.11687    0.27075    0.68506   1.00
C5       0.29198    0.36953    0.50980   1.00
H2       0.31111    0.38392    0.48782   1.00
H2       0.31150    0.35373    0.53045   1.00
C5       0.26739    0.39990    0.53197   1.00
H2       0.28655    0.42346    0.54334   1.00
C5       0.20130    0.86730    0.63227   1.00
H2       0.18031    0.84791    0.64755   1.00
H2       0.18375    0.88434    0.61099   1.00
C5       0.22087    0.89489    0.66219   1.00
H2       0.20161    0.92017    0.66890   1.00
H2       0.24907    0.90589    0.65040   1.00
O_3      0.30975    0.78790    0.48000   1.00
C4       0.24971    0.74966    0.52100   1.00
C3c      0.23047    0.77881    0.54243   1.00
H1       0.21514    0.80182    0.52725   1.00
C3d      0.26904    0.71962    0.54135   1.00
C3       0.23111    0.77911    0.58354   1.00
O2       0.20774    0.80572    0.60248   1.00
C3       0.27036    0.72026    0.58227   1.00
H1       0.28671    0.69739    0.59657   1.00
C2       0.25142    0.74975    0.60439   1.00
C5       0.34461    0.76597    0.47879   1.00
H2       0.35521    0.76141    0.44838   1.00
H2       0.34059    0.73679    0.49266   1.00
C5       0.37547    0.78857    0.50122   1.00
H2       0.36441    0.79409    0.53129   1.00
H2       0.37950    0.81750    0.48691   1.00
C5       0.41412    0.76604    0.50254   1.00
H2       0.42519    0.76019    0.47260   1.00
H2       0.41042    0.73774    0.51803   1.00
H2       0.43655    0.78339    0.51830   1.00
C5       0.26663    0.66041    0.51105   1.00
C5       0.22927    0.83994    0.61070   1.00
H2       0.24307    0.66996    0.49088   1.00
H2       0.25303    0.64643    0.53712   1.00
H2       0.23942    0.85372    0.58300   1.00
H2       0.25569    0.83401    0.62895   1.00
H2       0.22626    0.87968    0.69055   1.00
H2       0.25224    0.61352    0.44250   1.00
H2       0.24537    0.58655    0.48766   1.00
C2       0.25253    0.74957    0.39605   1.00
C3       0.22105    0.73199    0.41597   1.00
O2       0.19642    0.70660    0.39674   1.00
C3       0.28167    0.76862    0.41826   1.00
H1       0.30561    0.78322    0.40385   1.00
C3a      0.21988    0.73292    0.45713   1.00
H1       0.19677    0.71743    0.47202   1.00
C3b      0.28108    0.76841    0.45922   1.00
C4       0.25008    0.75041    0.47900   1.00
O_3      0.29088    0.69194    0.52167   1.00
C5       0.16111    0.72549    0.38720   1.00
H2       0.14591    0.73634    0.41391   1.00
C5       0.13530    0.69538    0.36666   1.00
H2       0.16637    0.75065    0.36726   1.00
H2       0.12170    0.67637    0.38923   1.00
H2       0.15479    0.67628    0.34899   1.00
C5       0.10370    0.71414    0.34069   1.00
H2       0.08650    0.73541    0.35811   1.00
H2       0.08354    0.69155    0.32891   1.00
H2       0.11687    0.72925    0.31494   1.00
C5       0.29198    0.63047    0.49020   1.00
H2       0.31111    0.61608    0.51218   1.00
H2       0.31150    0.64627    0.46955   1.00
C5       0.26739    0.60010    0.46803   1.00
H2       0.28655    0.57654    0.45666   1.00
C5       0.36730    1.13227    0.20130   1.00
H2       0.34791    1.14755    0.18031   1.00
H2       0.38434    1.11099    0.18375   1.00
C5       0.39489    1.16219    0.22087   1.00
H2       0.42017    1.16890    0.20161   1.00
H2       0.40589    1.15040    0.24907   1.00
O_3      0.28790    0.98000    0.30975   1.00
C4       0.24966    1.02100    0.24971   1.00
C3c      0.27881    1.04243    0.23047   1.00
H1       0.30182    1.02725    0.21514   1.00
C3d      0.21962    1.04135    0.26904   1.00
C3       0.27911    1.08354    0.23111   1.00
O2       0.30572    1.10248    0.20774   1.00
C3       0.22026    1.08227    0.27036   1.00
H1       0.19739    1.09657    0.28671   1.00
C2       0.24975    1.10439    0.25142   1.00
C5       0.26597    0.97879    0.34461   1.00
H2       0.26141    0.94838    0.35521   1.00
H2       0.23679    0.99266    0.34059   1.00
C5       0.28857    1.00122    0.37547   1.00
H2       0.29409    1.03129    0.36441   1.00
H2       0.31750    0.98691    0.37950   1.00
C5       0.26604    1.00254    0.41412   1.00
H2       0.26019    0.97260    0.42519   1.00
H2       0.23774    1.01803    0.41042   1.00
H2       0.28339    1.01830    0.43655   1.00
C5       0.16041    1.01105    0.26663   1.00
C5       0.33994    1.11070    0.22927   1.00
H2       0.16996    0.99088    0.24307   1.00
H2       0.14643    1.03712    0.25303   1.00
H2       0.35372    1.08300    0.23942   1.00
H2       0.33401    1.12895    0.25569   1.00
H2       0.37968    1.19055    0.22626   1.00
H2       0.11352    0.94250    0.25224   1.00
H2       0.08655    0.98766    0.24537   1.00
C2       0.24957    0.89605    0.25253   1.00
C3       0.23199    0.91597    0.22105   1.00
O2       0.20660    0.89674    0.19642   1.00
C3       0.26862    0.91826    0.28167   1.00
H1       0.28322    0.90385    0.30561   1.00
C3a      0.23292    0.95713    0.21988   1.00
H1       0.21743    0.97202    0.19677   1.00
C3b      0.26841    0.95922    0.28108   1.00
C4       0.25041    0.97900    0.25008   1.00
O_3      0.19194    1.02167    0.29088   1.00
C5       0.22549    0.88720    0.16111   1.00
H2       0.23634    0.91391    0.14591   1.00
C5       0.19538    0.86666    0.13530   1.00
H2       0.25065    0.86726    0.16637   1.00
H2       0.17637    0.88923    0.12170   1.00
H2       0.17628    0.84899    0.15479   1.00
C5       0.21414    0.84069    0.10370   1.00
H2       0.23541    0.85811    0.08650   1.00
H2       0.19155    0.82891    0.08354   1.00
H2       0.22925    0.81494    0.11687   1.00
C5       0.13047    0.99020    0.29198   1.00
H2       0.11608    1.01218    0.31111   1.00
H2       0.14627    0.96955    0.31150   1.00
C5       0.10010    0.96803    0.26739   1.00
H2       0.07654    0.95666    0.28655   1.00
C5       -0.13227   0.70130    0.13270   1.00
H2       -0.14755   0.68031    0.15209   1.00
H2       -0.11099   0.68375    0.11566   1.00
C5       -0.16219   0.72087    0.10511   1.00
H2       -0.16890   0.70161    0.07983   1.00
H2       -0.15040   0.74907    0.09411   1.00
O_3      0.02000    0.80975    0.21210   1.00
C4       -0.02100   0.74971    0.25034   1.00
C3c      -0.04243   0.73047    0.22119   1.00
H1       -0.02725   0.71514    0.19818   1.00
C3d      -0.04135   0.76904    0.28038   1.00
C3       -0.08354   0.73111    0.22089   1.00
O2       -0.10248   0.70774    0.19428   1.00
C3       -0.08227   0.77036    0.27974   1.00
H1       -0.09657   0.78671    0.30261   1.00
C2       -0.10439   0.75142    0.25025   1.00
C5       0.02121    0.84461    0.23403   1.00
H2       0.05162    0.85521    0.23859   1.00
H2       0.00734    0.84059    0.26321   1.00
C5       -0.00122   0.87547    0.21143   1.00
H2       -0.03129   0.86441    0.20591   1.00
H2       0.01309    0.87950    0.18250   1.00
C5       -0.00254   0.91412    0.23396   1.00
H2       0.02740    0.92519    0.23981   1.00
H2       -0.01803   0.91042    0.26226   1.00
H2       -0.01830   0.93655    0.21661   1.00
C5       -0.01105   0.76663    0.33959   1.00
C5       -0.11070   0.72927    0.16006   1.00
H2       0.00912    0.74307    0.33004   1.00
H2       -0.03712   0.75303    0.35357   1.00
H2       -0.08300   0.73942    0.14628   1.00
H2       -0.12895   0.75569    0.16599   1.00
H2       -0.19055   0.72626    0.12032   1.00
H2       0.05750    0.75224    0.38648   1.00
H2       0.01234    0.74537    0.41345   1.00
C2       0.10395    0.75253    0.25043   1.00
C3       0.08403    0.72105    0.26801   1.00
O2       0.10326    0.69642    0.29340   1.00
C3       0.08174    0.78167    0.23138   1.00
H1       0.09615    0.80561    0.21678   1.00
C3a      0.04287    0.71988    0.26708   1.00
H1       0.02798    0.69677    0.28257   1.00
C3b      0.04078    0.78108    0.23159   1.00
C4       0.02100    0.75008    0.24959   1.00
O_3      -0.02167   0.79088    0.30806   1.00
C5       0.11280    0.66111    0.27451   1.00
H2       0.08609    0.64591    0.26366   1.00
C5       0.13334    0.63530    0.30462   1.00
H2       0.13274    0.66637    0.24935   1.00
H2       0.11077    0.62170    0.32363   1.00
H2       0.15101    0.65479    0.32372   1.00
C5       0.15931    0.60370    0.28586   1.00
H2       0.14189    0.58650    0.26459   1.00
H2       0.17109    0.58354    0.30845   1.00
H2       0.18506    0.61687    0.27075   1.00
C5       0.00980    0.79198    0.36953   1.00
H2       -0.01218   0.81111    0.38392   1.00
H2       0.03045    0.81150    0.35373   1.00
C5       0.03197    0.76739    0.39990   1.00
H2       0.04334    0.78655    0.42346   1.00
C5       0.63227    0.70130    0.36730   1.00
H2       0.64755    0.68031    0.34791   1.00
H2       0.61099    0.68375    0.38434   1.00
C5       0.66219    0.72087    0.39489   1.00
H2       0.66890    0.70161    0.42017   1.00
H2       0.65040    0.74907    0.40589   1.00
O_3      0.48000    0.80975    0.28790   1.00
C4       0.52100    0.74971    0.24966   1.00
C3c      0.54243    0.73047    0.27881   1.00
H1       0.52725    0.71514    0.30182   1.00
C3d      0.54135    0.76904    0.21962   1.00
C3       0.58354    0.73111    0.27911   1.00
O2       0.60248    0.70774    0.30572   1.00
C3       0.58227    0.77036    0.22026   1.00
H1       0.59657    0.78671    0.19739   1.00
C2       0.60439    0.75142    0.24975   1.00
C5       0.47879    0.84461    0.26597   1.00
H2       0.44838    0.85521    0.26141   1.00
H2       0.49266    0.84059    0.23679   1.00
C5       0.50122    0.87547    0.28857   1.00
H2       0.53129    0.86441    0.29409   1.00
H2       0.48691    0.87950    0.31750   1.00
C5       0.50254    0.91412    0.26604   1.00
H2       0.47260    0.92519    0.26019   1.00
H2       0.51803    0.91042    0.23774   1.00
H2       0.51830    0.93655    0.28339   1.00
C5       0.51105    0.76663    0.16041   1.00
C5       0.61070    0.72927    0.33994   1.00
H2       0.49088    0.74307    0.16996   1.00
H2       0.53712    0.75303    0.14643   1.00
H2       0.58300    0.73942    0.35372   1.00
H2       0.62895    0.75569    0.33401   1.00
H2       0.69055    0.72626    0.37968   1.00
H2       0.44250    0.75224    0.11352   1.00
H2       0.48766    0.74537    0.08655   1.00
C2       0.39605    0.75253    0.24957   1.00
C3       0.41597    0.72105    0.23199   1.00
O2       0.39674    0.69642    0.20660   1.00
C3       0.41826    0.78167    0.26862   1.00
H1       0.40385    0.80561    0.28322   1.00
C3a      0.45713    0.71988    0.23292   1.00
H1       0.47202    0.69677    0.21743   1.00
C3b      0.45922    0.78108    0.26841   1.00
C4       0.47900    0.75008    0.25041   1.00
O_3      0.52167    0.79088    0.19194   1.00
C5       0.38720    0.66111    0.22549   1.00
H2       0.41391    0.64591    0.23634   1.00
C5       0.36666    0.63530    0.19538   1.00
H2       0.36726    0.66637    0.25065   1.00
H2       0.38923    0.62170    0.17637   1.00
H2       0.34899    0.65479    0.17628   1.00
C5       0.34069    0.60370    0.21414   1.00
H2       0.35811    0.58650    0.23541   1.00
H2       0.32891    0.58354    0.19155   1.00
H2       0.31494    0.61687    0.22925   1.00
C5       0.49020    0.79198    0.13047   1.00
H2       0.51218    0.81111    0.11608   1.00
H2       0.46955    0.81150    0.14627   1.00
C5       0.46803    0.76739    0.10010   1.00
H2       0.45666    0.78655    0.07654   1.00
C5       0.13270    0.36773    0.20130   1.00
H2       0.15209    0.35245    0.18031   1.00
H2       0.11566    0.38901    0.18375   1.00
C5       0.10511    0.33781    0.22087   1.00
H2       0.07983    0.33110    0.20161   1.00
H2       0.09411    0.34960    0.24907   1.00
O_3      0.21210    0.52000    0.30975   1.00
C4       0.25034    0.47900    0.24971   1.00
C3c      0.22119    0.45757    0.23047   1.00
H1       0.19818    0.47275    0.21514   1.00
C3d      0.28038    0.45865    0.26904   1.00
C3       0.22089    0.41646    0.23111   1.00
O2       0.19428    0.39752    0.20774   1.00
C3       0.27974    0.41773    0.27036   1.00
H1       0.30261    0.40343    0.28671   1.00
C2       0.25025    0.39561    0.25142   1.00
C5       0.23403    0.52121    0.34461   1.00
H2       0.23859    0.55162    0.35521   1.00
H2       0.26321    0.50734    0.34059   1.00
C5       0.21143    0.49878    0.37547   1.00
H2       0.20591    0.46871    0.36441   1.00
H2       0.18250    0.51309    0.37950   1.00
C5       0.23396    0.49746    0.41412   1.00
H2       0.23981    0.52740    0.42519   1.00
H2       0.26226    0.48197    0.41042   1.00
H2       0.21661    0.48170    0.43655   1.00
C5       0.33959    0.48895    0.26663   1.00
C5       0.16006    0.38930    0.22927   1.00
H2       0.33004    0.50912    0.24307   1.00
H2       0.35357    0.46288    0.25303   1.00
H2       0.14628    0.41700    0.23942   1.00
H2       0.16599    0.37105    0.25569   1.00
H2       0.12032    0.30945    0.22626   1.00
H2       0.38648    0.55750    0.25224   1.00
H2       0.41345    0.51234    0.24537   1.00
C2       0.25043    0.60395    0.25253   1.00
C3       0.26801    0.58403    0.22105   1.00
O2       0.29340    0.60326    0.19642   1.00
C3       0.23138    0.58174    0.28167   1.00
H1       0.21678    0.59615    0.30561   1.00
C3a      0.26708    0.54287    0.21988   1.00
H1       0.28257    0.52798    0.19677   1.00
C3b      0.23159    0.54078    0.28108   1.00
C4       0.24959    0.52100    0.25008   1.00
O_3      0.30806    0.47833    0.29088   1.00
C5       0.27451    0.61280    0.16111   1.00
H2       0.26366    0.58609    0.14591   1.00
C5       0.30462    0.63334    0.13530   1.00
H2       0.24935    0.63274    0.16637   1.00
H2       0.32363    0.61077    0.12170   1.00
H2       0.32372    0.65101    0.15479   1.00
C5       0.28586    0.65931    0.10370   1.00
H2       0.26459    0.64189    0.08650   1.00
H2       0.30845    0.67109    0.08354   1.00
H2       0.27075    0.68506    0.11687   1.00
C5       0.36953    0.50980    0.29198   1.00
H2       0.38392    0.48782    0.31111   1.00
H2       0.35373    0.53045    0.31150   1.00
C5       0.39990    0.53197    0.26739   1.00
H2       0.42346    0.54334    0.28655   1.00
C5       0.20130    0.63270    -0.13227   1.00
H2       0.18031    0.65209    -0.14755   1.00
H2       0.18375    0.61566    -0.11099   1.00
C5       0.22087    0.60511    -0.16219   1.00
H2       0.20161    0.57983    -0.16890   1.00
H2       0.24907    0.59411    -0.15040   1.00
O_3      0.30975    0.71210    0.02000   1.00
C4       0.24971    0.75034    -0.02100   1.00
C3c      0.23047    0.72119    -0.04243   1.00
H1       0.21514    0.69818    -0.02725   1.00
C3d      0.26904    0.78038    -0.04135   1.00
C3       0.23111    0.72089    -0.08354   1.00
O2       0.20774    0.69428    -0.10248   1.00
C3       0.27036    0.77974    -0.08227   1.00
H1       0.28671    0.80261    -0.09657   1.00
C2       0.25142    0.75025    -0.10439   1.00
C5       0.34461    0.73403    0.02121   1.00
H2       0.35521    0.73859    0.05162   1.00
H2       0.34059    0.76321    0.00734   1.00
C5       0.37547    0.71143    -0.00122   1.00
H2       0.36441    0.70591    -0.03129   1.00
H2       0.37950    0.68250    0.01309   1.00
C5       0.41412    0.73396    -0.00254   1.00
H2       0.42519    0.73981    0.02740   1.00
H2       0.41042    0.76226    -0.01803   1.00
H2       0.43655    0.71661    -0.01830   1.00
C5       0.26663    0.83959    -0.01105   1.00
C5       0.22927    0.66006    -0.11070   1.00
H2       0.24307    0.83004    0.00912   1.00
H2       0.25303    0.85357    -0.03712   1.00
H2       0.23942    0.64628    -0.08300   1.00
H2       0.25569    0.66599    -0.12895   1.00
H2       0.22626    0.62032    -0.19055   1.00
H2       0.25224    0.88648    0.05750   1.00
H2       0.24537    0.91345    0.01234   1.00
C2       0.25253    0.75043    0.10395   1.00
C3       0.22105    0.76801    0.08403   1.00
O2       0.19642    0.79340    0.10326   1.00
C3       0.28167    0.73138    0.08174   1.00
H1       0.30561    0.71678    0.09615   1.00
C3a      0.21988    0.76708    0.04287   1.00
H1       0.19677    0.78257    0.02798   1.00
C3b      0.28108    0.73159    0.04078   1.00
C4       0.25008    0.74959    0.02100   1.00
O_3      0.29088    0.80806    -0.02167   1.00
C5       0.16111    0.77451    0.11280   1.00
H2       0.14591    0.76366    0.08609   1.00
C5       0.13530    0.80462    0.13334   1.00
H2       0.16637    0.74935    0.13274   1.00
H2       0.12170    0.82363    0.11077   1.00
H2       0.15479    0.82372    0.15101   1.00
C5       0.10370    0.78586    0.15931   1.00
H2       0.08650    0.76459    0.14189   1.00
H2       0.08354    0.80845    0.17109   1.00
H2       0.11687    0.77075    0.18506   1.00
C5       0.29198    0.86953    0.00980   1.00
H2       0.31111    0.88392    -0.01218   1.00
H2       0.31150    0.85373    0.03045   1.00
C5       0.26739    0.89990    0.03197   1.00
H2       0.28655    0.92346    0.04334   1.00
C5       0.70130    0.36730    0.63227   1.00
H2       0.68031    0.34791    0.64755   1.00
H2       0.68375    0.38434    0.61099   1.00
C5       0.72087    0.39489    0.66219   1.00
H2       0.70161    0.42017    0.66890   1.00
H2       0.74907    0.40589    0.65040   1.00
O_3      0.80975    0.28790    0.48000   1.00
C4       0.74971    0.24966    0.52100   1.00
C3c      0.73047    0.27881    0.54243   1.00
H1       0.71514    0.30182    0.52725   1.00
C3d      0.76904    0.21962    0.54135   1.00
C3       0.73111    0.27911    0.58354   1.00
O2       0.70774    0.30572    0.60248   1.00
C3       0.77036    0.22026    0.58227   1.00
H1       0.78671    0.19739    0.59657   1.00
C2       0.75142    0.24975    0.60439   1.00
C5       0.84461    0.26597    0.47879   1.00
H2       0.85521    0.26141    0.44838   1.00
H2       0.84059    0.23679    0.49266   1.00
C5       0.87547    0.28857    0.50122   1.00
H2       0.86441    0.29409    0.53129   1.00
H2       0.87950    0.31750    0.48691   1.00
C5       0.91412    0.26604    0.50254   1.00
H2       0.92519    0.26019    0.47260   1.00
H2       0.91042    0.23774    0.51803   1.00
H2       0.93655    0.28339    0.51830   1.00
C5       0.76663    0.16041    0.51105   1.00
C5       0.72927    0.33994    0.61070   1.00
H2       0.74307    0.16996    0.49088   1.00
H2       0.75303    0.14643    0.53712   1.00
H2       0.73942    0.35372    0.58300   1.00
H2       0.75569    0.33401    0.62895   1.00
H2       0.72626    0.37968    0.69055   1.00
H2       0.75224    0.11352    0.44250   1.00
H2       0.74537    0.08655    0.48766   1.00
C2       0.75253    0.24957    0.39605   1.00
C3       0.72105    0.23199    0.41597   1.00
O2       0.69642    0.20660    0.39674   1.00
C3       0.78167    0.26862    0.41826   1.00
H1       0.80561    0.28322    0.40385   1.00
C3a      0.71988    0.23292    0.45713   1.00
H1       0.69677    0.21743    0.47202   1.00
C3b      0.78108    0.26841    0.45922   1.00
C4       0.75008    0.25041    0.47900   1.00
O_3      0.79088    0.19194    0.52167   1.00
C5       0.66111    0.22549    0.38720   1.00
H2       0.64591    0.23634    0.41391   1.00
C5       0.63530    0.19538    0.36666   1.00
H2       0.66637    0.25065    0.36726   1.00
H2       0.62170    0.17637    0.38923   1.00
H2       0.65479    0.17628    0.34899   1.00
C5       0.60370    0.21414    0.34069   1.00
H2       0.58650    0.23541    0.35811   1.00
H2       0.58354    0.19155    0.32891   1.00
H2       0.61687    0.22925    0.31494   1.00
C5       0.79198    0.13047    0.49020   1.00
H2       0.81111    0.11608    0.51218   1.00
H2       0.81150    0.14627    0.46955   1.00
C5       0.76739    0.10010    0.46803   1.00
H2       0.78655    0.07654    0.45666   1.00
C5       0.86730    0.63227    0.20130   1.00
H2       0.84791    0.64755    0.18031   1.00
H2       0.88434    0.61099    0.18375   1.00
C5       0.89489    0.66219    0.22087   1.00
H2       0.92017    0.66890    0.20161   1.00
H2       0.90589    0.65040    0.24907   1.00
O_3      0.78790    0.48000    0.30975   1.00
C4       0.74966    0.52100    0.24971   1.00
C3c      0.77881    0.54243    0.23047   1.00
H1       0.80182    0.52725    0.21514   1.00
C3d      0.71962    0.54135    0.26904   1.00
C3       0.77911    0.58354    0.23111   1.00
O2       0.80572    0.60248    0.20774   1.00
C3       0.72026    0.58227    0.27036   1.00
H1       0.69739    0.59657    0.28671   1.00
C2       0.74975    0.60439    0.25142   1.00
C5       0.76597    0.47879    0.34461   1.00
H2       0.76141    0.44838    0.35521   1.00
H2       0.73679    0.49266    0.34059   1.00
C5       0.78857    0.50122    0.37547   1.00
H2       0.79409    0.53129    0.36441   1.00
H2       0.81750    0.48691    0.37950   1.00
C5       0.76604    0.50254    0.41412   1.00
H2       0.76019    0.47260    0.42519   1.00
H2       0.73774    0.51803    0.41042   1.00
H2       0.78339    0.51830    0.43655   1.00
C5       0.66041    0.51105    0.26663   1.00
C5       0.83994    0.61070    0.22927   1.00
H2       0.66996    0.49088    0.24307   1.00
H2       0.64643    0.53712    0.25303   1.00
H2       0.85372    0.58300    0.23942   1.00
H2       0.83401    0.62895    0.25569   1.00
H2       0.87968    0.69055    0.22626   1.00
H2       0.61352    0.44250    0.25224   1.00
H2       0.58655    0.48766    0.24537   1.00
C2       0.74957    0.39605    0.25253   1.00
C3       0.73199    0.41597    0.22105   1.00
O2       0.70660    0.39674    0.19642   1.00
C3       0.76862    0.41826    0.28167   1.00
H1       0.78322    0.40385    0.30561   1.00
C3a      0.73292    0.45713    0.21988   1.00
H1       0.71743    0.47202    0.19677   1.00
C3b      0.76841    0.45922    0.28108   1.00
C4       0.75041    0.47900    0.25008   1.00
O_3      0.69194    0.52167    0.29088   1.00
C5       0.72549    0.38720    0.16111   1.00
H2       0.73634    0.41391    0.14591   1.00
C5       0.69538    0.36666    0.13530   1.00
H2       0.75065    0.36726    0.16637   1.00
H2       0.67637    0.38923    0.12170   1.00
H2       0.67628    0.34899    0.15479   1.00
C5       0.71414    0.34069    0.10370   1.00
H2       0.73541    0.35811    0.08650   1.00
H2       0.69155    0.32891    0.08354   1.00
H2       0.72925    0.31494    0.11687   1.00
C5       0.63047    0.49020    0.29198   1.00
H2       0.61608    0.51218    0.31111   1.00
H2       0.64627    0.46955    0.31150   1.00
C5       0.60010    0.46803    0.26739   1.00
H2       0.57654    0.45666    0.28655   1.00
C5       0.36773    0.20130    0.13270   1.00
H2       0.35245    0.18031    0.15209   1.00
H2       0.38901    0.18375    0.11566   1.00
C5       0.33781    0.22087    0.10511   1.00
H2       0.33110    0.20161    0.07983   1.00
H2       0.34960    0.24907    0.09411   1.00
O_3      0.52000    0.30975    0.21210   1.00
C4       0.47900    0.24971    0.25034   1.00
C3c      0.45757    0.23047    0.22119   1.00
H1       0.47275    0.21514    0.19818   1.00
C3d      0.45865    0.26904    0.28038   1.00
C3       0.41646    0.23111    0.22089   1.00
O2       0.39752    0.20774    0.19428   1.00
C3       0.41773    0.27036    0.27974   1.00
H1       0.40343    0.28671    0.30261   1.00
C2       0.39561    0.25142    0.25025   1.00
C5       0.52121    0.34461    0.23403   1.00
H2       0.55162    0.35521    0.23859   1.00
H2       0.50734    0.34059    0.26321   1.00
C5       0.49878    0.37547    0.21143   1.00
H2       0.46871    0.36441    0.20591   1.00
H2       0.51309    0.37950    0.18250   1.00
C5       0.49746    0.41412    0.23396   1.00
H2       0.52740    0.42519    0.23981   1.00
H2       0.48197    0.41042    0.26226   1.00
H2       0.48170    0.43655    0.21661   1.00
C5       0.48895    0.26663    0.33959   1.00
C5       0.38930    0.22927    0.16006   1.00
H2       0.50912    0.24307    0.33004   1.00
H2       0.46288    0.25303    0.35357   1.00
H2       0.41700    0.23942    0.14628   1.00
H2       0.37105    0.25569    0.16599   1.00
H2       0.30945    0.22626    0.12032   1.00
H2       0.55750    0.25224    0.38648   1.00
H2       0.51234    0.24537    0.41345   1.00
C2       0.60395    0.25253    0.25043   1.00
C3       0.58403    0.22105    0.26801   1.00
O2       0.60326    0.19642    0.29340   1.00
C3       0.58174    0.28167    0.23138   1.00
H1       0.59615    0.30561    0.21678   1.00
C3a      0.54287    0.21988    0.26708   1.00
H1       0.52798    0.19677    0.28257   1.00
C3b      0.54078    0.28108    0.23159   1.00
C4       0.52100    0.25008    0.24959   1.00
O_3      0.47833    0.29088    0.30806   1.00
C5       0.61280    0.16111    0.27451   1.00
H2       0.58609    0.14591    0.26366   1.00
C5       0.63334    0.13530    0.30462   1.00
H2       0.63274    0.16637    0.24935   1.00
H2       0.61077    0.12170    0.32363   1.00
H2       0.65101    0.15479    0.32372   1.00
C5       0.65931    0.10370    0.28586   1.00
H2       0.64189    0.08650    0.26459   1.00
H2       0.67109    0.08354    0.30845   1.00
H2       0.68506    0.11687    0.27075   1.00
C5       0.50980    0.29198    0.36953   1.00
H2       0.48782    0.31111    0.38392   1.00
H2       0.53045    0.31150    0.35373   1.00
C5       0.53197    0.26739    0.39990   1.00
H2       0.54334    0.28655    0.42346   1.00
C5       1.13227    0.20130    0.36730   1.00
H2       1.14755    0.18031    0.34791   1.00
H2       1.11099    0.18375    0.38434   1.00
C5       1.16219    0.22087    0.39489   1.00
H2       1.16890    0.20161    0.42017   1.00
H2       1.15040    0.24907    0.40589   1.00
O_3      0.98000    0.30975    0.28790   1.00
C4       1.02100    0.24971    0.24966   1.00
C3c      1.04243    0.23047    0.27881   1.00
H1       1.02725    0.21514    0.30182   1.00
C3d      1.04135    0.26904    0.21962   1.00
C3       1.08354    0.23111    0.27911   1.00
O2       1.10248    0.20774    0.30572   1.00
C3       1.08227    0.27036    0.22026   1.00
H1       1.09657    0.28671    0.19739   1.00
C2       1.10439    0.25142    0.24975   1.00
C5       0.97879    0.34461    0.26597   1.00
H2       0.94838    0.35521    0.26141   1.00
H2       0.99266    0.34059    0.23679   1.00
C5       1.00122    0.37547    0.28857   1.00
H2       1.03129    0.36441    0.29409   1.00
H2       0.98691    0.37950    0.31750   1.00
C5       1.00254    0.41412    0.26604   1.00
H2       0.97260    0.42519    0.26019   1.00
H2       1.01803    0.41042    0.23774   1.00
H2       1.01830    0.43655    0.28339   1.00
C5       1.01105    0.26663    0.16041   1.00
C5       1.11070    0.22927    0.33994   1.00
H2       0.99088    0.24307    0.16996   1.00
H2       1.03712    0.25303    0.14643   1.00
H2       1.08300    0.23942    0.35372   1.00
H2       1.12895    0.25569    0.33401   1.00
H2       1.19055    0.22626    0.37968   1.00
H2       0.94250    0.25224    0.11352   1.00
H2       0.98766    0.24537    0.08655   1.00
C2       0.89605    0.25253    0.24957   1.00
C3       0.91597    0.22105    0.23199   1.00
O2       0.89674    0.19642    0.20660   1.00
C3       0.91826    0.28167    0.26862   1.00
H1       0.90385    0.30561    0.28322   1.00
C3a      0.95713    0.21988    0.23292   1.00
H1       0.97202    0.19677    0.21743   1.00
C3b      0.95922    0.28108    0.26841   1.00
C4       0.97900    0.25008    0.25041   1.00
O_3      1.02167    0.29088    0.19194   1.00
C5       0.88720    0.16111    0.22549   1.00
H2       0.91391    0.14591    0.23634   1.00
C5       0.86666    0.13530    0.19538   1.00
H2       0.86726    0.16637    0.25065   1.00
H2       0.88923    0.12170    0.17637   1.00
H2       0.84899    0.15479    0.17628   1.00
C5       0.84069    0.10370    0.21414   1.00
H2       0.85811    0.08650    0.23541   1.00
H2       0.82891    0.08354    0.19155   1.00
H2       0.81494    0.11687    0.22925   1.00
C5       0.99020    0.29198    0.13047   1.00
H2       1.01218    0.31111    0.11608   1.00
H2       0.96955    0.31150    0.14627   1.00
C5       0.96803    0.26739    0.10010   1.00
H2       0.95666    0.28655    0.07654   1.00
C5       0.63270    -0.13227   0.20130   1.00
H2       0.65209    -0.14755   0.18031   1.00
H2       0.61566    -0.11099   0.18375   1.00
C5       0.60511    -0.16219   0.22087   1.00
H2       0.57983    -0.16890   0.20161   1.00
H2       0.59411    -0.15040   0.24907   1.00
O_3      0.71210    0.02000    0.30975   1.00
C4       0.75034    -0.02100   0.24971   1.00
C3c      0.72119    -0.04243   0.23047   1.00
H1       0.69818    -0.02725   0.21514   1.00
C3d      0.78038    -0.04135   0.26904   1.00
C3       0.72089    -0.08354   0.23111   1.00
O2       0.69428    -0.10248   0.20774   1.00
C3       0.77974    -0.08227   0.27036   1.00
H1       0.80261    -0.09657   0.28671   1.00
C2       0.75025    -0.10439   0.25142   1.00
C5       0.73403    0.02121    0.34461   1.00
H2       0.73859    0.05162    0.35521   1.00
H2       0.76321    0.00734    0.34059   1.00
C5       0.71143    -0.00122   0.37547   1.00
H2       0.70591    -0.03129   0.36441   1.00
H2       0.68250    0.01309    0.37950   1.00
C5       0.73396    -0.00254   0.41412   1.00
H2       0.73981    0.02740    0.42519   1.00
H2       0.76226    -0.01803   0.41042   1.00
H2       0.71661    -0.01830   0.43655   1.00
C5       0.83959    -0.01105   0.26663   1.00
C5       0.66006    -0.11070   0.22927   1.00
H2       0.83004    0.00912    0.24307   1.00
H2       0.85357    -0.03712   0.25303   1.00
H2       0.64628    -0.08300   0.23942   1.00
H2       0.66599    -0.12895   0.25569   1.00
H2       0.62032    -0.19055   0.22626   1.00
H2       0.88648    0.05750    0.25224   1.00
H2       0.91345    0.01234    0.24537   1.00
C2       0.75043    0.10395    0.25253   1.00
C3       0.76801    0.08403    0.22105   1.00
O2       0.79340    0.10326    0.19642   1.00
C3       0.73138    0.08174    0.28167   1.00
H1       0.71678    0.09615    0.30561   1.00
C3a      0.76708    0.04287    0.21988   1.00
H1       0.78257    0.02798    0.19677   1.00
C3b      0.73159    0.04078    0.28108   1.00
C4       0.74959    0.02100    0.25008   1.00
O_3      0.80806    -0.02167   0.29088   1.00
C5       0.77451    0.11280    0.16111   1.00
H2       0.76366    0.08609    0.14591   1.00
C5       0.80462    0.13334    0.13530   1.00
H2       0.74935    0.13274    0.16637   1.00
H2       0.82363    0.11077    0.12170   1.00
H2       0.82372    0.15101    0.15479   1.00
C5       0.78586    0.15931    0.10370   1.00
H2       0.76459    0.14189    0.08650   1.00
H2       0.80845    0.17109    0.08354   1.00
H2       0.77075    0.18506    0.11687   1.00
C5       0.86953    0.00980    0.29198   1.00
H2       0.88392    -0.01218   0.31111   1.00
H2       0.85373    0.03045    0.31150   1.00
C5       0.89990    0.03197    0.26739   1.00
H2       0.92346    0.04334    0.28655   1.00
C5       0.70130    0.13270    -0.13227   1.00
H2       0.68031    0.15209    -0.14755   1.00
H2       0.68375    0.11566    -0.11099   1.00
C5       0.72087    0.10511    -0.16219   1.00
H2       0.70161    0.07983    -0.16890   1.00
H2       0.74907    0.09411    -0.15040   1.00
O_3      0.80975    0.21210    0.02000   1.00
C4       0.74971    0.25034    -0.02100   1.00
C3c      0.73047    0.22119    -0.04243   1.00
H1       0.71514    0.19818    -0.02725   1.00
C3d      0.76904    0.28038    -0.04135   1.00
C3       0.73111    0.22089    -0.08354   1.00
O2       0.70774    0.19428    -0.10248   1.00
C3       0.77036    0.27974    -0.08227   1.00
H1       0.78671    0.30261    -0.09657   1.00
C2       0.75142    0.25025    -0.10439   1.00
C5       0.84461    0.23403    0.02121   1.00
H2       0.85521    0.23859    0.05162   1.00
H2       0.84059    0.26321    0.00734   1.00
C5       0.87547    0.21143    -0.00122   1.00
H2       0.86441    0.20591    -0.03129   1.00
H2       0.87950    0.18250    0.01309   1.00
C5       0.91412    0.23396    -0.00254   1.00
H2       0.92519    0.23981    0.02740   1.00
H2       0.91042    0.26226    -0.01803   1.00
H2       0.93655    0.21661    -0.01830   1.00
C5       0.76663    0.33959    -0.01105   1.00
C5       0.72927    0.16006    -0.11070   1.00
H2       0.74307    0.33004    0.00912   1.00
H2       0.75303    0.35357    -0.03712   1.00
H2       0.73942    0.14628    -0.08300   1.00
H2       0.75569    0.16599    -0.12895   1.00
H2       0.72626    0.12032    -0.19055   1.00
H2       0.75224    0.38648    0.05750   1.00
H2       0.74537    0.41345    0.01234   1.00
C2       0.75253    0.25043    0.10395   1.00
C3       0.72105    0.26801    0.08403   1.00
O2       0.69642    0.29340    0.10326   1.00
C3       0.78167    0.23138    0.08174   1.00
H1       0.80561    0.21678    0.09615   1.00
C3a      0.71988    0.26708    0.04287   1.00
H1       0.69677    0.28257    0.02798   1.00
C3b      0.78108    0.23159    0.04078   1.00
C4       0.75008    0.24959    0.02100   1.00
O_3      0.79088    0.30806    -0.02167   1.00
C5       0.66111    0.27451    0.11280   1.00
H2       0.64591    0.26366    0.08609   1.00
C5       0.63530    0.30462    0.13334   1.00
H2       0.66637    0.24935    0.13274   1.00
H2       0.62170    0.32363    0.11077   1.00
H2       0.65479    0.32372    0.15101   1.00
C5       0.60370    0.28586    0.15931   1.00
H2       0.58650    0.26459    0.14189   1.00
H2       0.58354    0.30845    0.17109   1.00
H2       0.61687    0.27075    0.18506   1.00
C5       0.79198    0.36953    0.00980   1.00
H2       0.81111    0.38392    -0.01218   1.00
H2       0.81150    0.35373    0.03045   1.00
C5       0.76739    0.39990    0.03197   1.00
H2       0.78655    0.42346    0.04334   1.00
C5       0.86630    1.03230    1.29727   1.00
H2       0.84531    1.01291    1.31255   1.00
H2       0.84875    1.04934    1.27599   1.00
C5       0.88587    1.05989    1.32719   1.00
H2       0.86661    1.08517    1.33390   1.00
H2       0.91407    1.07089    1.31540   1.00
O_3      0.97475    0.95290    1.14500   1.00
C4       0.91471    0.91466    1.18600   1.00
C3c      0.89547    0.94381    1.20743   1.00
H1       0.88014    0.96682    1.19225   1.00
C3d      0.93404    0.88462    1.20635   1.00
C3       0.89611    0.94411    1.24854   1.00
O2       0.87274    0.97072    1.26748   1.00
C3       0.93536    0.88526    1.24727   1.00
H1       0.95171    0.86239    1.26157   1.00
C2       0.91642    0.91475    1.26939   1.00
C5       1.00961    0.93097    1.14379   1.00
H2       1.02021    0.92641    1.11338   1.00
H2       1.00559    0.90179    1.15766   1.00
C5       1.04047    0.95357    1.16622   1.00
H2       1.02941    0.95909    1.19629   1.00
H2       1.04450    0.98250    1.15191   1.00
C5       1.07912    0.93104    1.16754   1.00
H2       1.09019    0.92519    1.13760   1.00
H2       1.07542    0.90274    1.18303   1.00
H2       1.10155    0.94839    1.18330   1.00
C5       0.93163    0.82541    1.17605   1.00
C5       0.89427    1.00494    1.27570   1.00
H2       0.90807    0.83496    1.15588   1.00
H2       0.91803    0.81143    1.20212   1.00
H2       0.90442    1.01872    1.24800   1.00
H2       0.92069    0.99901    1.29395   1.00
H2       0.89126    1.04468    1.35555   1.00
H2       0.91724    0.77852    1.10750   1.00
H2       0.91037    0.75155    1.15266   1.00
C2       0.91753    0.91457    1.06105   1.00
C3       0.88605    0.89699    1.08097   1.00
O2       0.86142    0.87160    1.06174   1.00
C3       0.94667    0.93362    1.08326   1.00
H1       0.97061    0.94822    1.06885   1.00
C3a      0.88488    0.89792    1.12213   1.00
H1       0.86177    0.88243    1.13702   1.00
C3b      0.94608    0.93341    1.12422   1.00
C4       0.91508    0.91541    1.14400   1.00
O_3      0.95588    0.85694    1.18667   1.00
C5       0.82611    0.89049    1.05220   1.00
H2       0.81091    0.90134    1.07891   1.00
C5       0.80030    0.86038    1.03166   1.00
H2       0.83137    0.91565    1.03226   1.00
H2       0.78670    0.84137    1.05423   1.00
H2       0.81979    0.84128    1.01399   1.00
C5       0.76870    0.87914    1.00569   1.00
H2       0.75150    0.90041    1.02311   1.00
H2       0.74854    0.85655    0.99391   1.00
H2       0.78187    0.89425    0.97994   1.00
C5       0.95698    0.79547    1.15520   1.00
H2       0.97611    0.78108    1.17718   1.00
H2       0.97650    0.81127    1.13455   1.00
C5       0.93239    0.76510    1.13303   1.00
H2       0.95155    0.74154    1.12166   1.00
C5       1.03230    1.29727    0.86630   1.00
H2       1.01291    1.31255    0.84531   1.00
H2       1.04934    1.27599    0.84875   1.00
C5       1.05989    1.32719    0.88587   1.00
H2       1.08517    1.33390    0.86661   1.00
H2       1.07089    1.31540    0.91407   1.00
O_3      0.95290    1.14500    0.97475   1.00
C4       0.91466    1.18600    0.91471   1.00
C3c      0.94381    1.20743    0.89547   1.00
H1       0.96682    1.19225    0.88014   1.00
C3d      0.88462    1.20635    0.93404   1.00
C3       0.94411    1.24854    0.89611   1.00
O2       0.97072    1.26748    0.87274   1.00
C3       0.88526    1.24727    0.93536   1.00
H1       0.86239    1.26157    0.95171   1.00
C2       0.91475    1.26939    0.91642   1.00
C5       0.93097    1.14379    1.00961   1.00
H2       0.92641    1.11338    1.02021   1.00
H2       0.90179    1.15766    1.00559   1.00
C5       0.95357    1.16622    1.04047   1.00
H2       0.95909    1.19629    1.02941   1.00
H2       0.98250    1.15191    1.04450   1.00
C5       0.93104    1.16754    1.07912   1.00
H2       0.92519    1.13760    1.09019   1.00
H2       0.90274    1.18303    1.07542   1.00
H2       0.94839    1.18330    1.10155   1.00
C5       0.82541    1.17605    0.93163   1.00
C5       1.00494    1.27570    0.89427   1.00
H2       0.83496    1.15588    0.90807   1.00
H2       0.81143    1.20212    0.91803   1.00
H2       1.01872    1.24800    0.90442   1.00
H2       0.99901    1.29395    0.92069   1.00
H2       1.04468    1.35555    0.89126   1.00
H2       0.77852    1.10750    0.91724   1.00
H2       0.75155    1.15266    0.91037   1.00
C2       0.91457    1.06105    0.91753   1.00
C3       0.89699    1.08097    0.88605   1.00
O2       0.87160    1.06174    0.86142   1.00
C3       0.93362    1.08326    0.94667   1.00
H1       0.94822    1.06885    0.97061   1.00
C3a      0.89792    1.12213    0.88488   1.00
H1       0.88243    1.13702    0.86177   1.00
C3b      0.93341    1.12422    0.94608   1.00
C4       0.91541    1.14400    0.91508   1.00
O_3      0.85694    1.18667    0.95588   1.00
C5       0.89049    1.05220    0.82611   1.00
H2       0.90134    1.07891    0.81091   1.00
C5       0.86038    1.03166    0.80030   1.00
H2       0.91565    1.03226    0.83137   1.00
H2       0.84137    1.05423    0.78670   1.00
H2       0.84128    1.01399    0.81979   1.00
C5       0.87914    1.00569    0.76870   1.00
H2       0.90041    1.02311    0.75150   1.00
H2       0.85655    0.99391    0.74854   1.00
H2       0.89425    0.97994    0.78187   1.00
C5       0.79547    1.15520    0.95698   1.00
H2       0.78108    1.17718    0.97611   1.00
H2       0.81127    1.13455    0.97650   1.00
C5       0.76510    1.13303    0.93239   1.00
H2       0.74154    1.12166    0.95155   1.00
C5       0.53273    0.86630    0.79770   1.00
H2       0.51745    0.84531    0.81709   1.00
H2       0.55401    0.84875    0.78066   1.00
C5       0.50281    0.88587    0.77011   1.00
H2       0.49610    0.86661    0.74483   1.00
H2       0.51460    0.91407    0.75911   1.00
O_3      0.68500    0.97475    0.87710   1.00
C4       0.64400    0.91471    0.91534   1.00
C3c      0.62257    0.89547    0.88619   1.00
H1       0.63775    0.88014    0.86318   1.00
C3d      0.62365    0.93404    0.94538   1.00
C3       0.58146    0.89611    0.88589   1.00
O2       0.56252    0.87274    0.85928   1.00
C3       0.58273    0.93536    0.94474   1.00
H1       0.56843    0.95171    0.96761   1.00
C2       0.56061    0.91642    0.91525   1.00
C5       0.68621    1.00961    0.89903   1.00
H2       0.71662    1.02021    0.90359   1.00
H2       0.67234    1.00559    0.92821   1.00
C5       0.66378    1.04047    0.87643   1.00
H2       0.63371    1.02941    0.87091   1.00
H2       0.67809    1.04450    0.84750   1.00
C5       0.66246    1.07912    0.89896   1.00
H2       0.69240    1.09019    0.90481   1.00
H2       0.64697    1.07542    0.92726   1.00
H2       0.64670    1.10155    0.88161   1.00
C5       0.65395    0.93163    1.00459   1.00
C5       0.55430    0.89427    0.82506   1.00
H2       0.67412    0.90807    0.99504   1.00
H2       0.62788    0.91803    1.01857   1.00
H2       0.58200    0.90442    0.81128   1.00
H2       0.53605    0.92069    0.83099   1.00
H2       0.47445    0.89126    0.78532   1.00
H2       0.72250    0.91724    1.05148   1.00
H2       0.67734    0.91037    1.07845   1.00
C2       0.76895    0.91753    0.91543   1.00
C3       0.74903    0.88605    0.93301   1.00
O2       0.76826    0.86142    0.95840   1.00
C3       0.74674    0.94667    0.89638   1.00
H1       0.76115    0.97061    0.88178   1.00
C3a      0.70787    0.88488    0.93208   1.00
H1       0.69298    0.86177    0.94757   1.00
C3b      0.70578    0.94608    0.89659   1.00
C4       0.68600    0.91508    0.91459   1.00
O_3      0.64333    0.95588    0.97306   1.00
C5       0.77780    0.82611    0.93951   1.00
H2       0.75109    0.81091    0.92866   1.00
C5       0.79834    0.80030    0.96962   1.00
H2       0.79774    0.83137    0.91435   1.00
H2       0.77577    0.78670    0.98863   1.00
H2       0.81601    0.81979    0.98872   1.00
C5       0.82431    0.76870    0.95086   1.00
H2       0.80689    0.75150    0.92959   1.00
H2       0.83609    0.74854    0.97345   1.00
H2       0.85006    0.78187    0.93575   1.00
C5       0.67480    0.95698    1.03453   1.00
H2       0.65282    0.97611    1.04892   1.00
H2       0.69545    0.97650    1.01873   1.00
C5       0.69697    0.93239    1.06490   1.00
H2       0.70834    0.95155    1.08846   1.00
C5       1.29727    0.86630    1.03230   1.00
H2       1.31255    0.84531    1.01291   1.00
H2       1.27599    0.84875    1.04934   1.00
C5       1.32719    0.88587    1.05989   1.00
H2       1.33390    0.86661    1.08517   1.00
H2       1.31540    0.91407    1.07089   1.00
O_3      1.14500    0.97475    0.95290   1.00
C4       1.18600    0.91471    0.91466   1.00
C3c      1.20743    0.89547    0.94381   1.00
H1       1.19225    0.88014    0.96682   1.00
C3d      1.20635    0.93404    0.88462   1.00
C3       1.24854    0.89611    0.94411   1.00
O2       1.26748    0.87274    0.97072   1.00
C3       1.24727    0.93536    0.88526   1.00
H1       1.26157    0.95171    0.86239   1.00
C2       1.26939    0.91642    0.91475   1.00
C5       1.14379    1.00961    0.93097   1.00
H2       1.11338    1.02021    0.92641   1.00
H2       1.15766    1.00559    0.90179   1.00
C5       1.16622    1.04047    0.95357   1.00
H2       1.19629    1.02941    0.95909   1.00
H2       1.15191    1.04450    0.98250   1.00
C5       1.16754    1.07912    0.93104   1.00
H2       1.13760    1.09019    0.92519   1.00
H2       1.18303    1.07542    0.90274   1.00
H2       1.18330    1.10155    0.94839   1.00
C5       1.17605    0.93163    0.82541   1.00
C5       1.27570    0.89427    1.00494   1.00
H2       1.15588    0.90807    0.83496   1.00
H2       1.20212    0.91803    0.81143   1.00
H2       1.24800    0.90442    1.01872   1.00
H2       1.29395    0.92069    0.99901   1.00
H2       1.35555    0.89126    1.04468   1.00
H2       1.10750    0.91724    0.77852   1.00
H2       1.15266    0.91037    0.75155   1.00
C2       1.06105    0.91753    0.91457   1.00
C3       1.08097    0.88605    0.89699   1.00
O2       1.06174    0.86142    0.87160   1.00
C3       1.08326    0.94667    0.93362   1.00
H1       1.06885    0.97061    0.94822   1.00
C3a      1.12213    0.88488    0.89792   1.00
H1       1.13702    0.86177    0.88243   1.00
C3b      1.12422    0.94608    0.93341   1.00
C4       1.14400    0.91508    0.91541   1.00
O_3      1.18667    0.95588    0.85694   1.00
C5       1.05220    0.82611    0.89049   1.00
H2       1.07891    0.81091    0.90134   1.00
C5       1.03166    0.80030    0.86038   1.00
H2       1.03226    0.83137    0.91565   1.00
H2       1.05423    0.78670    0.84137   1.00
H2       1.01399    0.81979    0.84128   1.00
C5       1.00569    0.76870    0.87914   1.00
H2       1.02311    0.75150    0.90041   1.00
H2       0.99391    0.74854    0.85655   1.00
H2       0.97994    0.78187    0.89425   1.00
C5       1.15520    0.95698    0.79547   1.00
H2       1.17718    0.97611    0.78108   1.00
H2       1.13455    0.97650    0.81127   1.00
C5       1.13303    0.93239    0.76510   1.00
H2       1.12166    0.95155    0.74154   1.00
C5       0.79770    0.53273    0.86630   1.00
H2       0.81709    0.51745    0.84531   1.00
H2       0.78066    0.55401    0.84875   1.00
C5       0.77011    0.50281    0.88587   1.00
H2       0.74483    0.49610    0.86661   1.00
H2       0.75911    0.51460    0.91407   1.00
O_3      0.87710    0.68500    0.97475   1.00
C4       0.91534    0.64400    0.91471   1.00
C3c      0.88619    0.62257    0.89547   1.00
H1       0.86318    0.63775    0.88014   1.00
C3d      0.94538    0.62365    0.93404   1.00
C3       0.88589    0.58146    0.89611   1.00
O2       0.85928    0.56252    0.87274   1.00
C3       0.94474    0.58273    0.93536   1.00
H1       0.96761    0.56843    0.95171   1.00
C2       0.91525    0.56061    0.91642   1.00
C5       0.89903    0.68621    1.00961   1.00
H2       0.90359    0.71662    1.02021   1.00
H2       0.92821    0.67234    1.00559   1.00
C5       0.87643    0.66378    1.04047   1.00
H2       0.87091    0.63371    1.02941   1.00
H2       0.84750    0.67809    1.04450   1.00
C5       0.89896    0.66246    1.07912   1.00
H2       0.90481    0.69240    1.09019   1.00
H2       0.92726    0.64697    1.07542   1.00
H2       0.88161    0.64670    1.10155   1.00
C5       1.00459    0.65395    0.93163   1.00
C5       0.82506    0.55430    0.89427   1.00
H2       0.99504    0.67412    0.90807   1.00
H2       1.01857    0.62788    0.91803   1.00
H2       0.81128    0.58200    0.90442   1.00
H2       0.83099    0.53605    0.92069   1.00
H2       0.78532    0.47445    0.89126   1.00
H2       1.05148    0.72250    0.91724   1.00
H2       1.07845    0.67734    0.91037   1.00
C2       0.91543    0.76895    0.91753   1.00
C3       0.93301    0.74903    0.88605   1.00
O2       0.95840    0.76826    0.86142   1.00
C3       0.89638    0.74674    0.94667   1.00
H1       0.88178    0.76115    0.97061   1.00
C3a      0.93208    0.70787    0.88488   1.00
H1       0.94757    0.69298    0.86177   1.00
C3b      0.89659    0.70578    0.94608   1.00
C4       0.91459    0.68600    0.91508   1.00
O_3      0.97306    0.64333    0.95588   1.00
C5       0.93951    0.77780    0.82611   1.00
H2       0.92866    0.75109    0.81091   1.00
C5       0.96962    0.79834    0.80030   1.00
H2       0.91435    0.79774    0.83137   1.00
H2       0.98863    0.77577    0.78670   1.00
H2       0.98872    0.81601    0.81979   1.00
C5       0.95086    0.82431    0.76870   1.00
H2       0.92959    0.80689    0.75150   1.00
H2       0.97345    0.83609    0.74854   1.00
H2       0.93575    0.85006    0.78187   1.00
C5       1.03453    0.67480    0.95698   1.00
H2       1.04892    0.65282    0.97611   1.00
H2       1.01873    0.69545    0.97650   1.00
C5       1.06490    0.69697    0.93239   1.00
H2       1.08846    0.70834    0.95155   1.00
C5       0.86630    0.79770    0.53273   1.00
H2       0.84531    0.81709    0.51745   1.00
H2       0.84875    0.78066    0.55401   1.00
C5       0.88587    0.77011    0.50281   1.00
H2       0.86661    0.74483    0.49610   1.00
H2       0.91407    0.75911    0.51460   1.00
O_3      0.97475    0.87710    0.68500   1.00
C4       0.91471    0.91534    0.64400   1.00
C3c      0.89547    0.88619    0.62257   1.00
H1       0.88014    0.86318    0.63775   1.00
C3d      0.93404    0.94538    0.62365   1.00
C3       0.89611    0.88589    0.58146   1.00
O2       0.87274    0.85928    0.56252   1.00
C3       0.93536    0.94474    0.58273   1.00
H1       0.95171    0.96761    0.56843   1.00
C2       0.91642    0.91525    0.56061   1.00
C5       1.00961    0.89903    0.68621   1.00
H2       1.02021    0.90359    0.71662   1.00
H2       1.00559    0.92821    0.67234   1.00
C5       1.04047    0.87643    0.66378   1.00
H2       1.02941    0.87091    0.63371   1.00
H2       1.04450    0.84750    0.67809   1.00
C5       1.07912    0.89896    0.66246   1.00
H2       1.09019    0.90481    0.69240   1.00
H2       1.07542    0.92726    0.64697   1.00
H2       1.10155    0.88161    0.64670   1.00
C5       0.93163    1.00459    0.65395   1.00
C5       0.89427    0.82506    0.55430   1.00
H2       0.90807    0.99504    0.67412   1.00
H2       0.91803    1.01857    0.62788   1.00
H2       0.90442    0.81128    0.58200   1.00
H2       0.92069    0.83099    0.53605   1.00
H2       0.89126    0.78532    0.47445   1.00
H2       0.91724    1.05148    0.72250   1.00
H2       0.91037    1.07845    0.67734   1.00
C2       0.91753    0.91543    0.76895   1.00
C3       0.88605    0.93301    0.74903   1.00
O2       0.86142    0.95840    0.76826   1.00
C3       0.94667    0.89638    0.74674   1.00
H1       0.97061    0.88178    0.76115   1.00
C3a      0.88488    0.93208    0.70787   1.00
H1       0.86177    0.94757    0.69298   1.00
C3b      0.94608    0.89659    0.70578   1.00
C4       0.91508    0.91459    0.68600   1.00
O_3      0.95588    0.97306    0.64333   1.00
C5       0.82611    0.93951    0.77780   1.00
H2       0.81091    0.92866    0.75109   1.00
C5       0.80030    0.96962    0.79834   1.00
H2       0.83137    0.91435    0.79774   1.00
H2       0.78670    0.98863    0.77577   1.00
H2       0.81979    0.98872    0.81601   1.00
C5       0.76870    0.95086    0.82431   1.00
H2       0.75150    0.92959    0.80689   1.00
H2       0.74854    0.97345    0.83609   1.00
H2       0.78187    0.93575    0.85006   1.00
C5       0.95698    1.03453    0.67480   1.00
H2       0.97611    1.04892    0.65282   1.00
H2       0.97650    1.01873    0.69545   1.00
C5       0.93239    1.06490    0.69697   1.00
H2       0.95155    1.08846    0.70834   1.00
C5       0.36630    0.53230    1.29727   1.00
H2       0.34531    0.51291    1.31255   1.00
H2       0.34875    0.54934    1.27599   1.00
C5       0.38587    0.55989    1.32719   1.00
H2       0.36661    0.58517    1.33390   1.00
H2       0.41407    0.57089    1.31540   1.00
O_3      0.47475    0.45290    1.14500   1.00
C4       0.41471    0.41466    1.18600   1.00
C3c      0.39547    0.44381    1.20743   1.00
H1       0.38014    0.46682    1.19225   1.00
C3d      0.43404    0.38462    1.20635   1.00
C3       0.39611    0.44411    1.24854   1.00
O2       0.37274    0.47072    1.26748   1.00
C3       0.43536    0.38526    1.24727   1.00
H1       0.45171    0.36239    1.26157   1.00
C2       0.41642    0.41475    1.26939   1.00
C5       0.50961    0.43097    1.14379   1.00
H2       0.52021    0.42641    1.11338   1.00
H2       0.50559    0.40179    1.15766   1.00
C5       0.54047    0.45357    1.16622   1.00
H2       0.52941    0.45909    1.19629   1.00
H2       0.54450    0.48250    1.15191   1.00
C5       0.57912    0.43104    1.16754   1.00
H2       0.59019    0.42519    1.13760   1.00
H2       0.57542    0.40274    1.18303   1.00
H2       0.60155    0.44839    1.18330   1.00
C5       0.43163    0.32541    1.17605   1.00
C5       0.39427    0.50494    1.27570   1.00
H2       0.40807    0.33496    1.15588   1.00
H2       0.41803    0.31143    1.20212   1.00
H2       0.40442    0.51872    1.24800   1.00
H2       0.42069    0.49901    1.29395   1.00
H2       0.39126    0.54468    1.35555   1.00
H2       0.41724    0.27852    1.10750   1.00
H2       0.41037    0.25155    1.15266   1.00
C2       0.41753    0.41457    1.06105   1.00
C3       0.38605    0.39699    1.08097   1.00
O2       0.36142    0.37160    1.06174   1.00
C3       0.44667    0.43362    1.08326   1.00
H1       0.47061    0.44822    1.06885   1.00
C3a      0.38488    0.39792    1.12213   1.00
H1       0.36177    0.38243    1.13702   1.00
C3b      0.44608    0.43341    1.12422   1.00
C4       0.41508    0.41541    1.14400   1.00
O_3      0.45588    0.35694    1.18667   1.00
C5       0.32611    0.39049    1.05220   1.00
H2       0.31091    0.40134    1.07891   1.00
C5       0.30030    0.36038    1.03166   1.00
H2       0.33137    0.41565    1.03226   1.00
H2       0.28670    0.34137    1.05423   1.00
H2       0.31979    0.34128    1.01399   1.00
C5       0.26870    0.37914    1.00569   1.00
H2       0.25150    0.40041    1.02311   1.00
H2       0.24854    0.35655    0.99391   1.00
H2       0.28187    0.39425    0.97994   1.00
C5       0.45698    0.29547    1.15520   1.00
H2       0.47611    0.28108    1.17718   1.00
H2       0.47650    0.31127    1.13455   1.00
C5       0.43239    0.26510    1.13303   1.00
H2       0.45155    0.24154    1.12166   1.00
C5       0.53230    0.79727    0.86630   1.00
H2       0.51291    0.81255    0.84531   1.00
H2       0.54934    0.77599    0.84875   1.00
C5       0.55989    0.82719    0.88587   1.00
H2       0.58517    0.83390    0.86661   1.00
H2       0.57089    0.81540    0.91407   1.00
O_3      0.45290    0.64500    0.97475   1.00
C4       0.41466    0.68600    0.91471   1.00
C3c      0.44381    0.70743    0.89547   1.00
H1       0.46682    0.69225    0.88014   1.00
C3d      0.38462    0.70635    0.93404   1.00
C3       0.44411    0.74854    0.89611   1.00
O2       0.47072    0.76748    0.87274   1.00
C3       0.38526    0.74727    0.93536   1.00
H1       0.36239    0.76157    0.95171   1.00
C2       0.41475    0.76939    0.91642   1.00
C5       0.43097    0.64379    1.00961   1.00
H2       0.42641    0.61338    1.02021   1.00
H2       0.40179    0.65766    1.00559   1.00
C5       0.45357    0.66622    1.04047   1.00
H2       0.45909    0.69629    1.02941   1.00
H2       0.48250    0.65191    1.04450   1.00
C5       0.43104    0.66754    1.07912   1.00
H2       0.42519    0.63760    1.09019   1.00
H2       0.40274    0.68303    1.07542   1.00
H2       0.44839    0.68330    1.10155   1.00
C5       0.32541    0.67605    0.93163   1.00
C5       0.50494    0.77570    0.89427   1.00
H2       0.33496    0.65588    0.90807   1.00
H2       0.31143    0.70212    0.91803   1.00
H2       0.51872    0.74800    0.90442   1.00
H2       0.49901    0.79395    0.92069   1.00
H2       0.54468    0.85555    0.89126   1.00
H2       0.27852    0.60750    0.91724   1.00
H2       0.25155    0.65266    0.91037   1.00
C2       0.41457    0.56105    0.91753   1.00
C3       0.39699    0.58097    0.88605   1.00
O2       0.37160    0.56174    0.86142   1.00
C3       0.43362    0.58326    0.94667   1.00
H1       0.44822    0.56885    0.97061   1.00
C3a      0.39792    0.62213    0.88488   1.00
H1       0.38243    0.63702    0.86177   1.00
C3b      0.43341    0.62422    0.94608   1.00
C4       0.41541    0.64400    0.91508   1.00
O_3      0.35694    0.68667    0.95588   1.00
C5       0.39049    0.55220    0.82611   1.00
H2       0.40134    0.57891    0.81091   1.00
C5       0.36038    0.53166    0.80030   1.00
H2       0.41565    0.53226    0.83137   1.00
H2       0.34137    0.55423    0.78670   1.00
H2       0.34128    0.51399    0.81979   1.00
C5       0.37914    0.50569    0.76870   1.00
H2       0.40041    0.52311    0.75150   1.00
H2       0.35655    0.49391    0.74854   1.00
H2       0.39425    0.47994    0.78187   1.00
C5       0.29547    0.65520    0.95698   1.00
H2       0.28108    0.67718    0.97611   1.00
H2       0.31127    0.63455    0.97650   1.00
C5       0.26510    0.63303    0.93239   1.00
H2       0.24154    0.62166    0.95155   1.00
C5       0.03273    0.36630    0.79770   1.00
H2       0.01745    0.34531    0.81709   1.00
H2       0.05401    0.34875    0.78066   1.00
C5       0.00281    0.38587    0.77011   1.00
H2       -0.00390   0.36661    0.74483   1.00
H2       0.01460    0.41407    0.75911   1.00
O_3      0.18500    0.47475    0.87710   1.00
C4       0.14400    0.41471    0.91534   1.00
C3c      0.12257    0.39547    0.88619   1.00
H1       0.13775    0.38014    0.86318   1.00
C3d      0.12365    0.43404    0.94538   1.00
C3       0.08146    0.39611    0.88589   1.00
O2       0.06252    0.37274    0.85928   1.00
C3       0.08273    0.43536    0.94474   1.00
H1       0.06843    0.45171    0.96761   1.00
C2       0.06061    0.41642    0.91525   1.00
C5       0.18621    0.50961    0.89903   1.00
H2       0.21662    0.52021    0.90359   1.00
H2       0.17234    0.50559    0.92821   1.00
C5       0.16378    0.54047    0.87643   1.00
H2       0.13371    0.52941    0.87091   1.00
H2       0.17809    0.54450    0.84750   1.00
C5       0.16246    0.57912    0.89896   1.00
H2       0.19240    0.59019    0.90481   1.00
H2       0.14697    0.57542    0.92726   1.00
H2       0.14670    0.60155    0.88161   1.00
C5       0.15395    0.43163    1.00459   1.00
C5       0.05430    0.39427    0.82506   1.00
H2       0.17412    0.40807    0.99504   1.00
H2       0.12788    0.41803    1.01857   1.00
H2       0.08200    0.40442    0.81128   1.00
H2       0.03605    0.42069    0.83099   1.00
H2       -0.02555   0.39126    0.78532   1.00
H2       0.22250    0.41724    1.05148   1.00
H2       0.17734    0.41037    1.07845   1.00
C2       0.26895    0.41753    0.91543   1.00
C3       0.24903    0.38605    0.93301   1.00
O2       0.26826    0.36142    0.95840   1.00
C3       0.24674    0.44667    0.89638   1.00
H1       0.26115    0.47061    0.88178   1.00
C3a      0.20787    0.38488    0.93208   1.00
H1       0.19298    0.36177    0.94757   1.00
C3b      0.20578    0.44608    0.89659   1.00
C4       0.18600    0.41508    0.91459   1.00
O_3      0.14333    0.45588    0.97306   1.00
C5       0.27780    0.32611    0.93951   1.00
H2       0.25109    0.31091    0.92866   1.00
C5       0.29834    0.30030    0.96962   1.00
H2       0.29774    0.33137    0.91435   1.00
H2       0.27577    0.28670    0.98863   1.00
H2       0.31601    0.31979    0.98872   1.00
C5       0.32431    0.26870    0.95086   1.00
H2       0.30689    0.25150    0.92959   1.00
H2       0.33609    0.24854    0.97345   1.00
H2       0.35006    0.28187    0.93575   1.00
C5       0.17480    0.45698    1.03453   1.00
H2       0.15282    0.47611    1.04892   1.00
H2       0.19545    0.47650    1.01873   1.00
C5       0.19697    0.43239    1.06490   1.00
H2       0.20834    0.45155    1.08846   1.00
C5       0.79727    0.36630    1.03230   1.00
H2       0.81255    0.34531    1.01291   1.00
H2       0.77599    0.34875    1.04934   1.00
C5       0.82719    0.38587    1.05989   1.00
H2       0.83390    0.36661    1.08517   1.00
H2       0.81540    0.41407    1.07089   1.00
O_3      0.64500    0.47475    0.95290   1.00
C4       0.68600    0.41471    0.91466   1.00
C3c      0.70743    0.39547    0.94381   1.00
H1       0.69225    0.38014    0.96682   1.00
C3d      0.70635    0.43404    0.88462   1.00
C3       0.74854    0.39611    0.94411   1.00
O2       0.76748    0.37274    0.97072   1.00
C3       0.74727    0.43536    0.88526   1.00
H1       0.76157    0.45171    0.86239   1.00
C2       0.76939    0.41642    0.91475   1.00
C5       0.64379    0.50961    0.93097   1.00
H2       0.61338    0.52021    0.92641   1.00
H2       0.65766    0.50559    0.90179   1.00
C5       0.66622    0.54047    0.95357   1.00
H2       0.69629    0.52941    0.95909   1.00
H2       0.65191    0.54450    0.98250   1.00
C5       0.66754    0.57912    0.93104   1.00
H2       0.63760    0.59019    0.92519   1.00
H2       0.68303    0.57542    0.90274   1.00
H2       0.68330    0.60155    0.94839   1.00
C5       0.67605    0.43163    0.82541   1.00
C5       0.77570    0.39427    1.00494   1.00
H2       0.65588    0.40807    0.83496   1.00
H2       0.70212    0.41803    0.81143   1.00
H2       0.74800    0.40442    1.01872   1.00
H2       0.79395    0.42069    0.99901   1.00
H2       0.85555    0.39126    1.04468   1.00
H2       0.60750    0.41724    0.77852   1.00
H2       0.65266    0.41037    0.75155   1.00
C2       0.56105    0.41753    0.91457   1.00
C3       0.58097    0.38605    0.89699   1.00
O2       0.56174    0.36142    0.87160   1.00
C3       0.58326    0.44667    0.93362   1.00
H1       0.56885    0.47061    0.94822   1.00
C3a      0.62213    0.38488    0.89792   1.00
H1       0.63702    0.36177    0.88243   1.00
C3b      0.62422    0.44608    0.93341   1.00
C4       0.64400    0.41508    0.91541   1.00
O_3      0.68667    0.45588    0.85694   1.00
C5       0.55220    0.32611    0.89049   1.00
H2       0.57891    0.31091    0.90134   1.00
C5       0.53166    0.30030    0.86038   1.00
H2       0.53226    0.33137    0.91565   1.00
H2       0.55423    0.28670    0.84137   1.00
H2       0.51399    0.31979    0.84128   1.00
C5       0.50569    0.26870    0.87914   1.00
H2       0.52311    0.25150    0.90041   1.00
H2       0.49391    0.24854    0.85655   1.00
H2       0.47994    0.28187    0.89425   1.00
C5       0.65520    0.45698    0.79547   1.00
H2       0.67718    0.47611    0.78108   1.00
H2       0.63455    0.47650    0.81127   1.00
C5       0.63303    0.43239    0.76510   1.00
H2       0.62166    0.45155    0.74154   1.00
C5       0.29770    0.03273    0.86630   1.00
H2       0.31709    0.01745    0.84531   1.00
H2       0.28066    0.05401    0.84875   1.00
C5       0.27011    0.00281    0.88587   1.00
H2       0.24483    -0.00390   0.86661   1.00
H2       0.25911    0.01460    0.91407   1.00
O_3      0.37710    0.18500    0.97475   1.00
C4       0.41534    0.14400    0.91471   1.00
C3c      0.38619    0.12257    0.89547   1.00
H1       0.36318    0.13775    0.88014   1.00
C3d      0.44538    0.12365    0.93404   1.00
C3       0.38589    0.08146    0.89611   1.00
O2       0.35928    0.06252    0.87274   1.00
C3       0.44474    0.08273    0.93536   1.00
H1       0.46761    0.06843    0.95171   1.00
C2       0.41525    0.06061    0.91642   1.00
C5       0.39903    0.18621    1.00961   1.00
H2       0.40359    0.21662    1.02021   1.00
H2       0.42821    0.17234    1.00559   1.00
C5       0.37643    0.16378    1.04047   1.00
H2       0.37091    0.13371    1.02941   1.00
H2       0.34750    0.17809    1.04450   1.00
C5       0.39896    0.16246    1.07912   1.00
H2       0.40481    0.19240    1.09019   1.00
H2       0.42726    0.14697    1.07542   1.00
H2       0.38161    0.14670    1.10155   1.00
C5       0.50459    0.15395    0.93163   1.00
C5       0.32506    0.05430    0.89427   1.00
H2       0.49504    0.17412    0.90807   1.00
H2       0.51857    0.12788    0.91803   1.00
H2       0.31128    0.08200    0.90442   1.00
H2       0.33099    0.03605    0.92069   1.00
H2       0.28532    -0.02555   0.89126   1.00
H2       0.55148    0.22250    0.91724   1.00
H2       0.57845    0.17734    0.91037   1.00
C2       0.41543    0.26895    0.91753   1.00
C3       0.43301    0.24903    0.88605   1.00
O2       0.45840    0.26826    0.86142   1.00
C3       0.39638    0.24674    0.94667   1.00
H1       0.38178    0.26115    0.97061   1.00
C3a      0.43208    0.20787    0.88488   1.00
H1       0.44757    0.19298    0.86177   1.00
C3b      0.39659    0.20578    0.94608   1.00
C4       0.41459    0.18600    0.91508   1.00
O_3      0.47306    0.14333    0.95588   1.00
C5       0.43951    0.27780    0.82611   1.00
H2       0.42866    0.25109    0.81091   1.00
C5       0.46962    0.29834    0.80030   1.00
H2       0.41435    0.29774    0.83137   1.00
H2       0.48863    0.27577    0.78670   1.00
H2       0.48872    0.31601    0.81979   1.00
C5       0.45086    0.32431    0.76870   1.00
H2       0.42959    0.30689    0.75150   1.00
H2       0.47345    0.33609    0.74854   1.00
H2       0.43575    0.35006    0.78187   1.00
C5       0.53453    0.17480    0.95698   1.00
H2       0.54892    0.15282    0.97611   1.00
H2       0.51873    0.19545    0.97650   1.00
C5       0.56490    0.19697    0.93239   1.00
H2       0.58846    0.20834    0.95155   1.00
C5       0.36630    0.29770    0.53273   1.00
H2       0.34531    0.31709    0.51745   1.00
H2       0.34875    0.28066    0.55401   1.00
C5       0.38587    0.27011    0.50281   1.00
H2       0.36661    0.24483    0.49610   1.00
H2       0.41407    0.25911    0.51460   1.00
O_3      0.47475    0.37710    0.68500   1.00
C4       0.41471    0.41534    0.64400   1.00
C3c      0.39547    0.38619    0.62257   1.00
H1       0.38014    0.36318    0.63775   1.00
C3d      0.43404    0.44538    0.62365   1.00
C3       0.39611    0.38589    0.58146   1.00
O2       0.37274    0.35928    0.56252   1.00
C3       0.43536    0.44474    0.58273   1.00
H1       0.45171    0.46761    0.56843   1.00
C2       0.41642    0.41525    0.56061   1.00
C5       0.50961    0.39903    0.68621   1.00
H2       0.52021    0.40359    0.71662   1.00
H2       0.50559    0.42821    0.67234   1.00
C5       0.54047    0.37643    0.66378   1.00
H2       0.52941    0.37091    0.63371   1.00
H2       0.54450    0.34750    0.67809   1.00
C5       0.57912    0.39896    0.66246   1.00
H2       0.59019    0.40481    0.69240   1.00
H2       0.57542    0.42726    0.64697   1.00
H2       0.60155    0.38161    0.64670   1.00
C5       0.43163    0.50459    0.65395   1.00
C5       0.39427    0.32506    0.55430   1.00
H2       0.40807    0.49504    0.67412   1.00
H2       0.41803    0.51857    0.62788   1.00
H2       0.40442    0.31128    0.58200   1.00
H2       0.42069    0.33099    0.53605   1.00
H2       0.39126    0.28532    0.47445   1.00
H2       0.41724    0.55148    0.72250   1.00
H2       0.41037    0.57845    0.67734   1.00
C2       0.41753    0.41543    0.76895   1.00
C3       0.38605    0.43301    0.74903   1.00
O2       0.36142    0.45840    0.76826   1.00
C3       0.44667    0.39638    0.74674   1.00
H1       0.47061    0.38178    0.76115   1.00
C3a      0.38488    0.43208    0.70787   1.00
H1       0.36177    0.44757    0.69298   1.00
C3b      0.44608    0.39659    0.70578   1.00
C4       0.41508    0.41459    0.68600   1.00
O_3      0.45588    0.47306    0.64333   1.00
C5       0.32611    0.43951    0.77780   1.00
H2       0.31091    0.42866    0.75109   1.00
C5       0.30030    0.46962    0.79834   1.00
H2       0.33137    0.41435    0.79774   1.00
H2       0.28670    0.48863    0.77577   1.00
H2       0.31979    0.48872    0.81601   1.00
C5       0.26870    0.45086    0.82431   1.00
H2       0.25150    0.42959    0.80689   1.00
H2       0.24854    0.47345    0.83609   1.00
H2       0.28187    0.43575    0.85006   1.00
C5       0.45698    0.53453    0.67480   1.00
H2       0.47611    0.54892    0.65282   1.00
H2       0.47650    0.51873    0.69545   1.00
C5       0.43239    0.56490    0.69697   1.00
H2       0.45155    0.58846    0.70834   1.00
C5       0.36630    1.03230    0.79727   1.00
H2       0.34531    1.01291    0.81255   1.00
H2       0.34875    1.04934    0.77599   1.00
C5       0.38587    1.05989    0.82719   1.00
H2       0.36661    1.08517    0.83390   1.00
H2       0.41407    1.07089    0.81540   1.00
O_3      0.47475    0.95290    0.64500   1.00
C4       0.41471    0.91466    0.68600   1.00
C3c      0.39547    0.94381    0.70743   1.00
H1       0.38014    0.96682    0.69225   1.00
C3d      0.43404    0.88462    0.70635   1.00
C3       0.39611    0.94411    0.74854   1.00
O2       0.37274    0.97072    0.76748   1.00
C3       0.43536    0.88526    0.74727   1.00
H1       0.45171    0.86239    0.76157   1.00
C2       0.41642    0.91475    0.76939   1.00
C5       0.50961    0.93097    0.64379   1.00
H2       0.52021    0.92641    0.61338   1.00
H2       0.50559    0.90179    0.65766   1.00
C5       0.54047    0.95357    0.66622   1.00
H2       0.52941    0.95909    0.69629   1.00
H2       0.54450    0.98250    0.65191   1.00
C5       0.57912    0.93104    0.66754   1.00
H2       0.59019    0.92519    0.63760   1.00
H2       0.57542    0.90274    0.68303   1.00
H2       0.60155    0.94839    0.68330   1.00
C5       0.43163    0.82541    0.67605   1.00
C5       0.39427    1.00494    0.77570   1.00
H2       0.40807    0.83496    0.65588   1.00
H2       0.41803    0.81143    0.70212   1.00
H2       0.40442    1.01872    0.74800   1.00
H2       0.42069    0.99901    0.79395   1.00
H2       0.39126    1.04468    0.85555   1.00
H2       0.41724    0.77852    0.60750   1.00
H2       0.41037    0.75155    0.65266   1.00
C2       0.41753    0.91457    0.56105   1.00
C3       0.38605    0.89699    0.58097   1.00
O2       0.36142    0.87160    0.56174   1.00
C3       0.44667    0.93362    0.58326   1.00
H1       0.47061    0.94822    0.56885   1.00
C3a      0.38488    0.89792    0.62213   1.00
H1       0.36177    0.88243    0.63702   1.00
C3b      0.44608    0.93341    0.62422   1.00
C4       0.41508    0.91541    0.64400   1.00
O_3      0.45588    0.85694    0.68667   1.00
C5       0.32611    0.89049    0.55220   1.00
H2       0.31091    0.90134    0.57891   1.00
C5       0.30030    0.86038    0.53166   1.00
H2       0.33137    0.91565    0.53226   1.00
H2       0.28670    0.84137    0.55423   1.00
H2       0.31979    0.84128    0.51399   1.00
C5       0.26870    0.87914    0.50569   1.00
H2       0.25150    0.90041    0.52311   1.00
H2       0.24854    0.85655    0.49391   1.00
H2       0.28187    0.89425    0.47994   1.00
C5       0.45698    0.79547    0.65520   1.00
H2       0.47611    0.78108    0.67718   1.00
H2       0.47650    0.81127    0.63455   1.00
C5       0.43239    0.76510    0.63303   1.00
H2       0.45155    0.74154    0.62166   1.00
C5       0.53230    1.29727    0.36630   1.00
H2       0.51291    1.31255    0.34531   1.00
H2       0.54934    1.27599    0.34875   1.00
C5       0.55989    1.32719    0.38587   1.00
H2       0.58517    1.33390    0.36661   1.00
H2       0.57089    1.31540    0.41407   1.00
O_3      0.45290    1.14500    0.47475   1.00
C4       0.41466    1.18600    0.41471   1.00
C3c      0.44381    1.20743    0.39547   1.00
H1       0.46682    1.19225    0.38014   1.00
C3d      0.38462    1.20635    0.43404   1.00
C3       0.44411    1.24854    0.39611   1.00
O2       0.47072    1.26748    0.37274   1.00
C3       0.38526    1.24727    0.43536   1.00
H1       0.36239    1.26157    0.45171   1.00
C2       0.41475    1.26939    0.41642   1.00
C5       0.43097    1.14379    0.50961   1.00
H2       0.42641    1.11338    0.52021   1.00
H2       0.40179    1.15766    0.50559   1.00
C5       0.45357    1.16622    0.54047   1.00
H2       0.45909    1.19629    0.52941   1.00
H2       0.48250    1.15191    0.54450   1.00
C5       0.43104    1.16754    0.57912   1.00
H2       0.42519    1.13760    0.59019   1.00
H2       0.40274    1.18303    0.57542   1.00
H2       0.44839    1.18330    0.60155   1.00
C5       0.32541    1.17605    0.43163   1.00
C5       0.50494    1.27570    0.39427   1.00
H2       0.33496    1.15588    0.40807   1.00
H2       0.31143    1.20212    0.41803   1.00
H2       0.51872    1.24800    0.40442   1.00
H2       0.49901    1.29395    0.42069   1.00
H2       0.54468    1.35555    0.39126   1.00
H2       0.27852    1.10750    0.41724   1.00
H2       0.25155    1.15266    0.41037   1.00
C2       0.41457    1.06105    0.41753   1.00
C3       0.39699    1.08097    0.38605   1.00
O2       0.37160    1.06174    0.36142   1.00
C3       0.43362    1.08326    0.44667   1.00
H1       0.44822    1.06885    0.47061   1.00
C3a      0.39792    1.12213    0.38488   1.00
H1       0.38243    1.13702    0.36177   1.00
C3b      0.43341    1.12422    0.44608   1.00
C4       0.41541    1.14400    0.41508   1.00
O_3      0.35694    1.18667    0.45588   1.00
C5       0.39049    1.05220    0.32611   1.00
H2       0.40134    1.07891    0.31091   1.00
C5       0.36038    1.03166    0.30030   1.00
H2       0.41565    1.03226    0.33137   1.00
H2       0.34137    1.05423    0.28670   1.00
H2       0.34128    1.01399    0.31979   1.00
C5       0.37914    1.00569    0.26870   1.00
H2       0.40041    1.02311    0.25150   1.00
H2       0.35655    0.99391    0.24854   1.00
H2       0.39425    0.97994    0.28187   1.00
C5       0.29547    1.15520    0.45698   1.00
H2       0.28108    1.17718    0.47611   1.00
H2       0.31127    1.13455    0.47650   1.00
C5       0.26510    1.13303    0.43239   1.00
H2       0.24154    1.12166    0.45155   1.00
C5       0.03273    0.86630    0.29770   1.00
H2       0.01745    0.84531    0.31709   1.00
H2       0.05401    0.84875    0.28066   1.00
C5       0.00281    0.88587    0.27011   1.00
H2       -0.00390   0.86661    0.24483   1.00
H2       0.01460    0.91407    0.25911   1.00
O_3      0.18500    0.97475    0.37710   1.00
C4       0.14400    0.91471    0.41534   1.00
C3c      0.12257    0.89547    0.38619   1.00
H1       0.13775    0.88014    0.36318   1.00
C3d      0.12365    0.93404    0.44538   1.00
C3       0.08146    0.89611    0.38589   1.00
O2       0.06252    0.87274    0.35928   1.00
C3       0.08273    0.93536    0.44474   1.00
H1       0.06843    0.95171    0.46761   1.00
C2       0.06061    0.91642    0.41525   1.00
C5       0.18621    1.00961    0.39903   1.00
H2       0.21662    1.02021    0.40359   1.00
H2       0.17234    1.00559    0.42821   1.00
C5       0.16378    1.04047    0.37643   1.00
H2       0.13371    1.02941    0.37091   1.00
H2       0.17809    1.04450    0.34750   1.00
C5       0.16246    1.07912    0.39896   1.00
H2       0.19240    1.09019    0.40481   1.00
H2       0.14697    1.07542    0.42726   1.00
H2       0.14670    1.10155    0.38161   1.00
C5       0.15395    0.93163    0.50459   1.00
C5       0.05430    0.89427    0.32506   1.00
H2       0.17412    0.90807    0.49504   1.00
H2       0.12788    0.91803    0.51857   1.00
H2       0.08200    0.90442    0.31128   1.00
H2       0.03605    0.92069    0.33099   1.00
H2       -0.02555   0.89126    0.28532   1.00
H2       0.22250    0.91724    0.55148   1.00
H2       0.17734    0.91037    0.57845   1.00
C2       0.26895    0.91753    0.41543   1.00
C3       0.24903    0.88605    0.43301   1.00
O2       0.26826    0.86142    0.45840   1.00
C3       0.24674    0.94667    0.39638   1.00
H1       0.26115    0.97061    0.38178   1.00
C3a      0.20787    0.88488    0.43208   1.00
H1       0.19298    0.86177    0.44757   1.00
C3b      0.20578    0.94608    0.39659   1.00
C4       0.18600    0.91508    0.41459   1.00
O_3      0.14333    0.95588    0.47306   1.00
C5       0.27780    0.82611    0.43951   1.00
H2       0.25109    0.81091    0.42866   1.00
C5       0.29834    0.80030    0.46962   1.00
H2       0.29774    0.83137    0.41435   1.00
H2       0.27577    0.78670    0.48863   1.00
H2       0.31601    0.81979    0.48872   1.00
C5       0.32431    0.76870    0.45086   1.00
H2       0.30689    0.75150    0.42959   1.00
H2       0.33609    0.74854    0.47345   1.00
H2       0.35006    0.78187    0.43575   1.00
C5       0.17480    0.95698    0.53453   1.00
H2       0.15282    0.97611    0.54892   1.00
H2       0.19545    0.97650    0.51873   1.00
C5       0.19697    0.93239    0.56490   1.00
H2       0.20834    0.95155    0.58846   1.00
C5       0.79727    0.86630    0.53230   1.00
H2       0.81255    0.84531    0.51291   1.00
H2       0.77599    0.84875    0.54934   1.00
C5       0.82719    0.88587    0.55989   1.00
H2       0.83390    0.86661    0.58517   1.00
H2       0.81540    0.91407    0.57089   1.00
O_3      0.64500    0.97475    0.45290   1.00
C4       0.68600    0.91471    0.41466   1.00
C3c      0.70743    0.89547    0.44381   1.00
H1       0.69225    0.88014    0.46682   1.00
C3d      0.70635    0.93404    0.38462   1.00
C3       0.74854    0.89611    0.44411   1.00
O2       0.76748    0.87274    0.47072   1.00
C3       0.74727    0.93536    0.38526   1.00
H1       0.76157    0.95171    0.36239   1.00
C2       0.76939    0.91642    0.41475   1.00
C5       0.64379    1.00961    0.43097   1.00
H2       0.61338    1.02021    0.42641   1.00
H2       0.65766    1.00559    0.40179   1.00
C5       0.66622    1.04047    0.45357   1.00
H2       0.69629    1.02941    0.45909   1.00
H2       0.65191    1.04450    0.48250   1.00
C5       0.66754    1.07912    0.43104   1.00
H2       0.63760    1.09019    0.42519   1.00
H2       0.68303    1.07542    0.40274   1.00
H2       0.68330    1.10155    0.44839   1.00
C5       0.67605    0.93163    0.32541   1.00
C5       0.77570    0.89427    0.50494   1.00
H2       0.65588    0.90807    0.33496   1.00
H2       0.70212    0.91803    0.31143   1.00
H2       0.74800    0.90442    0.51872   1.00
H2       0.79395    0.92069    0.49901   1.00
H2       0.85555    0.89126    0.54468   1.00
H2       0.60750    0.91724    0.27852   1.00
H2       0.65266    0.91037    0.25155   1.00
C2       0.56105    0.91753    0.41457   1.00
C3       0.58097    0.88605    0.39699   1.00
O2       0.56174    0.86142    0.37160   1.00
C3       0.58326    0.94667    0.43362   1.00
H1       0.56885    0.97061    0.44822   1.00
C3a      0.62213    0.88488    0.39792   1.00
H1       0.63702    0.86177    0.38243   1.00
C3b      0.62422    0.94608    0.43341   1.00
C4       0.64400    0.91508    0.41541   1.00
O_3      0.68667    0.95588    0.35694   1.00
C5       0.55220    0.82611    0.39049   1.00
H2       0.57891    0.81091    0.40134   1.00
C5       0.53166    0.80030    0.36038   1.00
H2       0.53226    0.83137    0.41565   1.00
H2       0.55423    0.78670    0.34137   1.00
H2       0.51399    0.81979    0.34128   1.00
C5       0.50569    0.76870    0.37914   1.00
H2       0.52311    0.75150    0.40041   1.00
H2       0.49391    0.74854    0.35655   1.00
H2       0.47994    0.78187    0.39425   1.00
C5       0.65520    0.95698    0.29547   1.00
H2       0.67718    0.97611    0.28108   1.00
H2       0.63455    0.97650    0.31127   1.00
C5       0.63303    0.93239    0.26510   1.00
H2       0.62166    0.95155    0.24154   1.00
C5       0.29770    0.53273    0.36630   1.00
H2       0.31709    0.51745    0.34531   1.00
H2       0.28066    0.55401    0.34875   1.00
C5       0.27011    0.50281    0.38587   1.00
H2       0.24483    0.49610    0.36661   1.00
H2       0.25911    0.51460    0.41407   1.00
O_3      0.37710    0.68500    0.47475   1.00
C4       0.41534    0.64400    0.41471   1.00
C3c      0.38619    0.62257    0.39547   1.00
H1       0.36318    0.63775    0.38014   1.00
C3d      0.44538    0.62365    0.43404   1.00
C3       0.38589    0.58146    0.39611   1.00
O2       0.35928    0.56252    0.37274   1.00
C3       0.44474    0.58273    0.43536   1.00
H1       0.46761    0.56843    0.45171   1.00
C2       0.41525    0.56061    0.41642   1.00
C5       0.39903    0.68621    0.50961   1.00
H2       0.40359    0.71662    0.52021   1.00
H2       0.42821    0.67234    0.50559   1.00
C5       0.37643    0.66378    0.54047   1.00
H2       0.37091    0.63371    0.52941   1.00
H2       0.34750    0.67809    0.54450   1.00
C5       0.39896    0.66246    0.57912   1.00
H2       0.40481    0.69240    0.59019   1.00
H2       0.42726    0.64697    0.57542   1.00
H2       0.38161    0.64670    0.60155   1.00
C5       0.50459    0.65395    0.43163   1.00
C5       0.32506    0.55430    0.39427   1.00
H2       0.49504    0.67412    0.40807   1.00
H2       0.51857    0.62788    0.41803   1.00
H2       0.31128    0.58200    0.40442   1.00
H2       0.33099    0.53605    0.42069   1.00
H2       0.28532    0.47445    0.39126   1.00
H2       0.55148    0.72250    0.41724   1.00
H2       0.57845    0.67734    0.41037   1.00
C2       0.41543    0.76895    0.41753   1.00
C3       0.43301    0.74903    0.38605   1.00
O2       0.45840    0.76826    0.36142   1.00
C3       0.39638    0.74674    0.44667   1.00
H1       0.38178    0.76115    0.47061   1.00
C3a      0.43208    0.70787    0.38488   1.00
H1       0.44757    0.69298    0.36177   1.00
C3b      0.39659    0.70578    0.44608   1.00
C4       0.41459    0.68600    0.41508   1.00
O_3      0.47306    0.64333    0.45588   1.00
C5       0.43951    0.77780    0.32611   1.00
H2       0.42866    0.75109    0.31091   1.00
C5       0.46962    0.79834    0.30030   1.00
H2       0.41435    0.79774    0.33137   1.00
H2       0.48863    0.77577    0.28670   1.00
H2       0.48872    0.81601    0.31979   1.00
C5       0.45086    0.82431    0.26870   1.00
H2       0.42959    0.80689    0.25150   1.00
H2       0.47345    0.83609    0.24854   1.00
H2       0.43575    0.85006    0.28187   1.00
C5       0.53453    0.67480    0.45698   1.00
H2       0.54892    0.65282    0.47611   1.00
H2       0.51873    0.69545    0.47650   1.00
C5       0.56490    0.69697    0.43239   1.00
H2       0.58846    0.70834    0.45155   1.00
C5       0.36630    0.79770    0.03273   1.00
H2       0.34531    0.81709    0.01745   1.00
H2       0.34875    0.78066    0.05401   1.00
C5       0.38587    0.77011    0.00281   1.00
H2       0.36661    0.74483    -0.00390   1.00
H2       0.41407    0.75911    0.01460   1.00
O_3      0.47475    0.87710    0.18500   1.00
C4       0.41471    0.91534    0.14400   1.00
C3c      0.39547    0.88619    0.12257   1.00
H1       0.38014    0.86318    0.13775   1.00
C3d      0.43404    0.94538    0.12365   1.00
C3       0.39611    0.88589    0.08146   1.00
O2       0.37274    0.85928    0.06252   1.00
C3       0.43536    0.94474    0.08273   1.00
H1       0.45171    0.96761    0.06843   1.00
C2       0.41642    0.91525    0.06061   1.00
C5       0.50961    0.89903    0.18621   1.00
H2       0.52021    0.90359    0.21662   1.00
H2       0.50559    0.92821    0.17234   1.00
C5       0.54047    0.87643    0.16378   1.00
H2       0.52941    0.87091    0.13371   1.00
H2       0.54450    0.84750    0.17809   1.00
C5       0.57912    0.89896    0.16246   1.00
H2       0.59019    0.90481    0.19240   1.00
H2       0.57542    0.92726    0.14697   1.00
H2       0.60155    0.88161    0.14670   1.00
C5       0.43163    1.00459    0.15395   1.00
C5       0.39427    0.82506    0.05430   1.00
H2       0.40807    0.99504    0.17412   1.00
H2       0.41803    1.01857    0.12788   1.00
H2       0.40442    0.81128    0.08200   1.00
H2       0.42069    0.83099    0.03605   1.00
H2       0.39126    0.78532    -0.02555   1.00
H2       0.41724    1.05148    0.22250   1.00
H2       0.41037    1.07845    0.17734   1.00
C2       0.41753    0.91543    0.26895   1.00
C3       0.38605    0.93301    0.24903   1.00
O2       0.36142    0.95840    0.26826   1.00
C3       0.44667    0.89638    0.24674   1.00
H1       0.47061    0.88178    0.26115   1.00
C3a      0.38488    0.93208    0.20787   1.00
H1       0.36177    0.94757    0.19298   1.00
C3b      0.44608    0.89659    0.20578   1.00
C4       0.41508    0.91459    0.18600   1.00
O_3      0.45588    0.97306    0.14333   1.00
C5       0.32611    0.93951    0.27780   1.00
H2       0.31091    0.92866    0.25109   1.00
C5       0.30030    0.96962    0.29834   1.00
H2       0.33137    0.91435    0.29774   1.00
H2       0.28670    0.98863    0.27577   1.00
H2       0.31979    0.98872    0.31601   1.00
C5       0.26870    0.95086    0.32431   1.00
H2       0.25150    0.92959    0.30689   1.00
H2       0.24854    0.97345    0.33609   1.00
H2       0.28187    0.93575    0.35006   1.00
C5       0.45698    1.03453    0.17480   1.00
H2       0.47611    1.04892    0.15282   1.00
H2       0.47650    1.01873    0.19545   1.00
C5       0.43239    1.06490    0.19697   1.00
H2       0.45155    1.08846    0.20834   1.00
C5       0.86630    0.53230    0.79727   1.00
H2       0.84531    0.51291    0.81255   1.00
H2       0.84875    0.54934    0.77599   1.00
C5       0.88587    0.55989    0.82719   1.00
H2       0.86661    0.58517    0.83390   1.00
H2       0.91407    0.57089    0.81540   1.00
O_3      0.97475    0.45290    0.64500   1.00
C4       0.91471    0.41466    0.68600   1.00
C3c      0.89547    0.44381    0.70743   1.00
H1       0.88014    0.46682    0.69225   1.00
C3d      0.93404    0.38462    0.70635   1.00
C3       0.89611    0.44411    0.74854   1.00
O2       0.87274    0.47072    0.76748   1.00
C3       0.93536    0.38526    0.74727   1.00
H1       0.95171    0.36239    0.76157   1.00
C2       0.91642    0.41475    0.76939   1.00
C5       1.00961    0.43097    0.64379   1.00
H2       1.02021    0.42641    0.61338   1.00
H2       1.00559    0.40179    0.65766   1.00
C5       1.04047    0.45357    0.66622   1.00
H2       1.02941    0.45909    0.69629   1.00
H2       1.04450    0.48250    0.65191   1.00
C5       1.07912    0.43104    0.66754   1.00
H2       1.09019    0.42519    0.63760   1.00
H2       1.07542    0.40274    0.68303   1.00
H2       1.10155    0.44839    0.68330   1.00
C5       0.93163    0.32541    0.67605   1.00
C5       0.89427    0.50494    0.77570   1.00
H2       0.90807    0.33496    0.65588   1.00
H2       0.91803    0.31143    0.70212   1.00
H2       0.90442    0.51872    0.74800   1.00
H2       0.92069    0.49901    0.79395   1.00
H2       0.89126    0.54468    0.85555   1.00
H2       0.91724    0.27852    0.60750   1.00
H2       0.91037    0.25155    0.65266   1.00
C2       0.91753    0.41457    0.56105   1.00
C3       0.88605    0.39699    0.58097   1.00
O2       0.86142    0.37160    0.56174   1.00
C3       0.94667    0.43362    0.58326   1.00
H1       0.97061    0.44822    0.56885   1.00
C3a      0.88488    0.39792    0.62213   1.00
H1       0.86177    0.38243    0.63702   1.00
C3b      0.94608    0.43341    0.62422   1.00
C4       0.91508    0.41541    0.64400   1.00
O_3      0.95588    0.35694    0.68667   1.00
C5       0.82611    0.39049    0.55220   1.00
H2       0.81091    0.40134    0.57891   1.00
C5       0.80030    0.36038    0.53166   1.00
H2       0.83137    0.41565    0.53226   1.00
H2       0.78670    0.34137    0.55423   1.00
H2       0.81979    0.34128    0.51399   1.00
C5       0.76870    0.37914    0.50569   1.00
H2       0.75150    0.40041    0.52311   1.00
H2       0.74854    0.35655    0.49391   1.00
H2       0.78187    0.39425    0.47994   1.00
C5       0.95698    0.29547    0.65520   1.00
H2       0.97611    0.28108    0.67718   1.00
H2       0.97650    0.31127    0.63455   1.00
C5       0.93239    0.26510    0.63303   1.00
H2       0.95155    0.24154    0.62166   1.00
C5       1.03230    0.79727    0.36630   1.00
H2       1.01291    0.81255    0.34531   1.00
H2       1.04934    0.77599    0.34875   1.00
C5       1.05989    0.82719    0.38587   1.00
H2       1.08517    0.83390    0.36661   1.00
H2       1.07089    0.81540    0.41407   1.00
O_3      0.95290    0.64500    0.47475   1.00
C4       0.91466    0.68600    0.41471   1.00
C3c      0.94381    0.70743    0.39547   1.00
H1       0.96682    0.69225    0.38014   1.00
C3d      0.88462    0.70635    0.43404   1.00
C3       0.94411    0.74854    0.39611   1.00
O2       0.97072    0.76748    0.37274   1.00
C3       0.88526    0.74727    0.43536   1.00
H1       0.86239    0.76157    0.45171   1.00
C2       0.91475    0.76939    0.41642   1.00
C5       0.93097    0.64379    0.50961   1.00
H2       0.92641    0.61338    0.52021   1.00
H2       0.90179    0.65766    0.50559   1.00
C5       0.95357    0.66622    0.54047   1.00
H2       0.95909    0.69629    0.52941   1.00
H2       0.98250    0.65191    0.54450   1.00
C5       0.93104    0.66754    0.57912   1.00
H2       0.92519    0.63760    0.59019   1.00
H2       0.90274    0.68303    0.57542   1.00
H2       0.94839    0.68330    0.60155   1.00
C5       0.82541    0.67605    0.43163   1.00
C5       1.00494    0.77570    0.39427   1.00
H2       0.83496    0.65588    0.40807   1.00
H2       0.81143    0.70212    0.41803   1.00
H2       1.01872    0.74800    0.40442   1.00
H2       0.99901    0.79395    0.42069   1.00
H2       1.04468    0.85555    0.39126   1.00
H2       0.77852    0.60750    0.41724   1.00
H2       0.75155    0.65266    0.41037   1.00
C2       0.91457    0.56105    0.41753   1.00
C3       0.89699    0.58097    0.38605   1.00
O2       0.87160    0.56174    0.36142   1.00
C3       0.93362    0.58326    0.44667   1.00
H1       0.94822    0.56885    0.47061   1.00
C3a      0.89792    0.62213    0.38488   1.00
H1       0.88243    0.63702    0.36177   1.00
C3b      0.93341    0.62422    0.44608   1.00
C4       0.91541    0.64400    0.41508   1.00
O_3      0.85694    0.68667    0.45588   1.00
C5       0.89049    0.55220    0.32611   1.00
H2       0.90134    0.57891    0.31091   1.00
C5       0.86038    0.53166    0.30030   1.00
H2       0.91565    0.53226    0.33137   1.00
H2       0.84137    0.55423    0.28670   1.00
H2       0.84128    0.51399    0.31979   1.00
C5       0.87914    0.50569    0.26870   1.00
H2       0.90041    0.52311    0.25150   1.00
H2       0.85655    0.49391    0.24854   1.00
H2       0.89425    0.47994    0.28187   1.00
C5       0.79547    0.65520    0.45698   1.00
H2       0.78108    0.67718    0.47611   1.00
H2       0.81127    0.63455    0.47650   1.00
C5       0.76510    0.63303    0.43239   1.00
H2       0.74154    0.62166    0.45155   1.00
C5       0.53273    0.36630    0.29770   1.00
H2       0.51745    0.34531    0.31709   1.00
H2       0.55401    0.34875    0.28066   1.00
C5       0.50281    0.38587    0.27011   1.00
H2       0.49610    0.36661    0.24483   1.00
H2       0.51460    0.41407    0.25911   1.00
O_3      0.68500    0.47475    0.37710   1.00
C4       0.64400    0.41471    0.41534   1.00
C3c      0.62257    0.39547    0.38619   1.00
H1       0.63775    0.38014    0.36318   1.00
C3d      0.62365    0.43404    0.44538   1.00
C3       0.58146    0.39611    0.38589   1.00
O2       0.56252    0.37274    0.35928   1.00
C3       0.58273    0.43536    0.44474   1.00
H1       0.56843    0.45171    0.46761   1.00
C2       0.56061    0.41642    0.41525   1.00
C5       0.68621    0.50961    0.39903   1.00
H2       0.71662    0.52021    0.40359   1.00
H2       0.67234    0.50559    0.42821   1.00
C5       0.66378    0.54047    0.37643   1.00
H2       0.63371    0.52941    0.37091   1.00
H2       0.67809    0.54450    0.34750   1.00
C5       0.66246    0.57912    0.39896   1.00
H2       0.69240    0.59019    0.40481   1.00
H2       0.64697    0.57542    0.42726   1.00
H2       0.64670    0.60155    0.38161   1.00
C5       0.65395    0.43163    0.50459   1.00
C5       0.55430    0.39427    0.32506   1.00
H2       0.67412    0.40807    0.49504   1.00
H2       0.62788    0.41803    0.51857   1.00
H2       0.58200    0.40442    0.31128   1.00
H2       0.53605    0.42069    0.33099   1.00
H2       0.47445    0.39126    0.28532   1.00
H2       0.72250    0.41724    0.55148   1.00
H2       0.67734    0.41037    0.57845   1.00
C2       0.76895    0.41753    0.41543   1.00
C3       0.74903    0.38605    0.43301   1.00
O2       0.76826    0.36142    0.45840   1.00
C3       0.74674    0.44667    0.39638   1.00
H1       0.76115    0.47061    0.38178   1.00
C3a      0.70787    0.38488    0.43208   1.00
H1       0.69298    0.36177    0.44757   1.00
C3b      0.70578    0.44608    0.39659   1.00
C4       0.68600    0.41508    0.41459   1.00
O_3      0.64333    0.45588    0.47306   1.00
C5       0.77780    0.32611    0.43951   1.00
H2       0.75109    0.31091    0.42866   1.00
C5       0.79834    0.30030    0.46962   1.00
H2       0.79774    0.33137    0.41435   1.00
H2       0.77577    0.28670    0.48863   1.00
H2       0.81601    0.31979    0.48872   1.00
C5       0.82431    0.26870    0.45086   1.00
H2       0.80689    0.25150    0.42959   1.00
H2       0.83609    0.24854    0.47345   1.00
H2       0.85006    0.28187    0.43575   1.00
C5       0.67480    0.45698    0.53453   1.00
H2       0.65282    0.47611    0.54892   1.00
H2       0.69545    0.47650    0.51873   1.00
C5       0.69697    0.43239    0.56490   1.00
H2       0.70834    0.45155    0.58846   1.00
C5       1.29727    0.36630    0.53230   1.00
H2       1.31255    0.34531    0.51291   1.00
H2       1.27599    0.34875    0.54934   1.00
C5       1.32719    0.38587    0.55989   1.00
H2       1.33390    0.36661    0.58517   1.00
H2       1.31540    0.41407    0.57089   1.00
O_3      1.14500    0.47475    0.45290   1.00
C4       1.18600    0.41471    0.41466   1.00
C3c      1.20743    0.39547    0.44381   1.00
H1       1.19225    0.38014    0.46682   1.00
C3d      1.20635    0.43404    0.38462   1.00
C3       1.24854    0.39611    0.44411   1.00
O2       1.26748    0.37274    0.47072   1.00
C3       1.24727    0.43536    0.38526   1.00
H1       1.26157    0.45171    0.36239   1.00
C2       1.26939    0.41642    0.41475   1.00
C5       1.14379    0.50961    0.43097   1.00
H2       1.11338    0.52021    0.42641   1.00
H2       1.15766    0.50559    0.40179   1.00
C5       1.16622    0.54047    0.45357   1.00
H2       1.19629    0.52941    0.45909   1.00
H2       1.15191    0.54450    0.48250   1.00
C5       1.16754    0.57912    0.43104   1.00
H2       1.13760    0.59019    0.42519   1.00
H2       1.18303    0.57542    0.40274   1.00
H2       1.18330    0.60155    0.44839   1.00
C5       1.17605    0.43163    0.32541   1.00
C5       1.27570    0.39427    0.50494   1.00
H2       1.15588    0.40807    0.33496   1.00
H2       1.20212    0.41803    0.31143   1.00
H2       1.24800    0.40442    0.51872   1.00
H2       1.29395    0.42069    0.49901   1.00
H2       1.35555    0.39126    0.54468   1.00
H2       1.10750    0.41724    0.27852   1.00
H2       1.15266    0.41037    0.25155   1.00
C2       1.06105    0.41753    0.41457   1.00
C3       1.08097    0.38605    0.39699   1.00
O2       1.06174    0.36142    0.37160   1.00
C3       1.08326    0.44667    0.43362   1.00
H1       1.06885    0.47061    0.44822   1.00
C3a      1.12213    0.38488    0.39792   1.00
H1       1.13702    0.36177    0.38243   1.00
C3b      1.12422    0.44608    0.43341   1.00
C4       1.14400    0.41508    0.41541   1.00
O_3      1.18667    0.45588    0.35694   1.00
C5       1.05220    0.32611    0.39049   1.00
H2       1.07891    0.31091    0.40134   1.00
C5       1.03166    0.30030    0.36038   1.00
H2       1.03226    0.33137    0.41565   1.00
H2       1.05423    0.28670    0.34137   1.00
H2       1.01399    0.31979    0.34128   1.00
C5       1.00569    0.26870    0.37914   1.00
H2       1.02311    0.25150    0.40041   1.00
H2       0.99391    0.24854    0.35655   1.00
H2       0.97994    0.28187    0.39425   1.00
C5       1.15520    0.45698    0.29547   1.00
H2       1.17718    0.47611    0.28108   1.00
H2       1.13455    0.47650    0.31127   1.00
C5       1.13303    0.43239    0.26510   1.00
H2       1.12166    0.45155    0.24154   1.00
C5       0.79770    0.03273    0.36630   1.00
H2       0.81709    0.01745    0.34531   1.00
H2       0.78066    0.05401    0.34875   1.00
C5       0.77011    0.00281    0.38587   1.00
H2       0.74483    -0.00390   0.36661   1.00
H2       0.75911    0.01460    0.41407   1.00
O_3      0.87710    0.18500    0.47475   1.00
C4       0.91534    0.14400    0.41471   1.00
C3c      0.88619    0.12257    0.39547   1.00
H1       0.86318    0.13775    0.38014   1.00
C3d      0.94538    0.12365    0.43404   1.00
C3       0.88589    0.08146    0.39611   1.00
O2       0.85928    0.06252    0.37274   1.00
C3       0.94474    0.08273    0.43536   1.00
H1       0.96761    0.06843    0.45171   1.00
C2       0.91525    0.06061    0.41642   1.00
C5       0.89903    0.18621    0.50961   1.00
H2       0.90359    0.21662    0.52021   1.00
H2       0.92821    0.17234    0.50559   1.00
C5       0.87643    0.16378    0.54047   1.00
H2       0.87091    0.13371    0.52941   1.00
H2       0.84750    0.17809    0.54450   1.00
C5       0.89896    0.16246    0.57912   1.00
H2       0.90481    0.19240    0.59019   1.00
H2       0.92726    0.14697    0.57542   1.00
H2       0.88161    0.14670    0.60155   1.00
C5       1.00459    0.15395    0.43163   1.00
C5       0.82506    0.05430    0.39427   1.00
H2       0.99504    0.17412    0.40807   1.00
H2       1.01857    0.12788    0.41803   1.00
H2       0.81128    0.08200    0.40442   1.00
H2       0.83099    0.03605    0.42069   1.00
H2       0.78532    -0.02555   0.39126   1.00
H2       1.05148    0.22250    0.41724   1.00
H2       1.07845    0.17734    0.41037   1.00
C2       0.91543    0.26895    0.41753   1.00
C3       0.93301    0.24903    0.38605   1.00
O2       0.95840    0.26826    0.36142   1.00
C3       0.89638    0.24674    0.44667   1.00
H1       0.88178    0.26115    0.47061   1.00
C3a      0.93208    0.20787    0.38488   1.00
H1       0.94757    0.19298    0.36177   1.00
C3b      0.89659    0.20578    0.44608   1.00
C4       0.91459    0.18600    0.41508   1.00
O_3      0.97306    0.14333    0.45588   1.00
C5       0.93951    0.27780    0.32611   1.00
H2       0.92866    0.25109    0.31091   1.00
C5       0.96962    0.29834    0.30030   1.00
H2       0.91435    0.29774    0.33137   1.00
H2       0.98863    0.27577    0.28670   1.00
H2       0.98872    0.31601    0.31979   1.00
C5       0.95086    0.32431    0.26870   1.00
H2       0.92959    0.30689    0.25150   1.00
H2       0.97345    0.33609    0.24854   1.00
H2       0.93575    0.35006    0.28187   1.00
C5       1.03453    0.17480    0.45698   1.00
H2       1.04892    0.15282    0.47611   1.00
H2       1.01873    0.19545    0.47650   1.00
C5       1.06490    0.19697    0.43239   1.00
H2       1.08846    0.20834    0.45155   1.00
C5       0.86630    0.29770    0.03273   1.00
H2       0.84531    0.31709    0.01745   1.00
H2       0.84875    0.28066    0.05401   1.00
C5       0.88587    0.27011    0.00281   1.00
H2       0.86661    0.24483    -0.00390   1.00
H2       0.91407    0.25911    0.01460   1.00
O_3      0.97475    0.37710    0.18500   1.00
C4       0.91471    0.41534    0.14400   1.00
C3c      0.89547    0.38619    0.12257   1.00
H1       0.88014    0.36318    0.13775   1.00
C3d      0.93404    0.44538    0.12365   1.00
C3       0.89611    0.38589    0.08146   1.00
O2       0.87274    0.35928    0.06252   1.00
C3       0.93536    0.44474    0.08273   1.00
H1       0.95171    0.46761    0.06843   1.00
C2       0.91642    0.41525    0.06061   1.00
C5       1.00961    0.39903    0.18621   1.00
H2       1.02021    0.40359    0.21662   1.00
H2       1.00559    0.42821    0.17234   1.00
C5       1.04047    0.37643    0.16378   1.00
H2       1.02941    0.37091    0.13371   1.00
H2       1.04450    0.34750    0.17809   1.00
C5       1.07912    0.39896    0.16246   1.00
H2       1.09019    0.40481    0.19240   1.00
H2       1.07542    0.42726    0.14697   1.00
H2       1.10155    0.38161    0.14670   1.00
C5       0.93163    0.50459    0.15395   1.00
C5       0.89427    0.32506    0.05430   1.00
H2       0.90807    0.49504    0.17412   1.00
H2       0.91803    0.51857    0.12788   1.00
H2       0.90442    0.31128    0.08200   1.00
H2       0.92069    0.33099    0.03605   1.00
H2       0.89126    0.28532    -0.02555   1.00
H2       0.91724    0.55148    0.22250   1.00
H2       0.91037    0.57845    0.17734   1.00
C2       0.91753    0.41543    0.26895   1.00
C3       0.88605    0.43301    0.24903   1.00
O2       0.86142    0.45840    0.26826   1.00
C3       0.94667    0.39638    0.24674   1.00
H1       0.97061    0.38178    0.26115   1.00
C3a      0.88488    0.43208    0.20787   1.00
H1       0.86177    0.44757    0.19298   1.00
C3b      0.94608    0.39659    0.20578   1.00
C4       0.91508    0.41459    0.18600   1.00
O_3      0.95588    0.47306    0.14333   1.00
C5       0.82611    0.43951    0.27780   1.00
H2       0.81091    0.42866    0.25109   1.00
C5       0.80030    0.46962    0.29834   1.00
H2       0.83137    0.41435    0.29774   1.00
H2       0.78670    0.48863    0.27577   1.00
H2       0.81979    0.48872    0.31601   1.00
C5       0.76870    0.45086    0.32431   1.00
H2       0.75150    0.42959    0.30689   1.00
H2       0.74854    0.47345    0.33609   1.00
H2       0.78187    0.43575    0.35006   1.00
C5       0.95698    0.53453    0.17480   1.00
H2       0.97611    0.54892    0.15282   1.00
H2       0.97650    0.51873    0.19545   1.00
C5       0.93239    0.56490    0.19697   1.00
H2       0.95155    0.58846    0.20834   1.00
