data_IRMOF10_SG202_interpen_Ligand4cp_label_j.

_audit_creation_method             'generated by an auxiliary program of Tobunporous'

_symmetry_space_group_name_H-M     'P 1'
_symmetry_Int_Tables_number        1
_symmetry_cell_setting             triclinic

_cell_length_a                    34.2800
_cell_length_b                    34.2800
_cell_length_c                    34.2800
_cell_angle_alpha                 90.0000
_cell_angle_beta                  90.0000
_cell_angle_gamma                 90.0000

loop_
_atom_site_label
_atom_site_fract_x
_atom_site_fract_y
_atom_site_fract_z
_atom_site_occupancy
O1       0.75000    0.75000    0.75000   1.00
Zn1      0.71720    0.78280    0.78280   1.00
Zn1      0.78280    0.71720    0.78280   1.00
Zn1      0.78280    0.78280    0.71720   1.00
Zn1      0.71720    0.71720    0.71720   1.00
O2       0.72650    0.77350    0.83820   1.00
O2       0.72650    0.83820    0.77350   1.00
O2       0.66180    0.77350    0.77350   1.00
O2       0.77350    0.72650    0.83820   1.00
O2       0.83820    0.72650    0.77350   1.00
O2       0.77350    0.66180    0.77350   1.00
O2       0.77350    0.83820    0.72650   1.00
O2       0.83820    0.77350    0.72650   1.00
O2       0.77350    0.77350    0.66180   1.00
O2       0.66180    0.72650    0.72650   1.00
O2       0.72650    0.66180    0.72650   1.00
O2       0.72650    0.72650    0.66180   1.00
C1       0.75000    0.75000    0.85520   1.00
C1       0.75000    0.85520    0.75000   1.00
C1       0.64480    0.75000    0.75000   1.00
C1       0.85520    0.75000    0.75000   1.00
C1       0.75000    0.64480    0.75000   1.00
C1       0.75000    0.75000    0.64480   1.00
O1       0.25000    0.25000    0.75000   1.00
Zn1      0.21720    0.28280    0.78280   1.00
Zn1      0.28280    0.21720    0.78280   1.00
Zn1      0.28280    0.28280    0.71720   1.00
Zn1      0.21720    0.21720    0.71720   1.00
O2       0.22650    0.27350    0.83820   1.00
O2       0.22650    0.33820    0.77350   1.00
O2       0.16180    0.27350    0.77350   1.00
O2       0.27350    0.22650    0.83820   1.00
O2       0.33820    0.22650    0.77350   1.00
O2       0.27350    0.16180    0.77350   1.00
O2       0.27350    0.33820    0.72650   1.00
O2       0.33820    0.27350    0.72650   1.00
O2       0.27350    0.27350    0.66180   1.00
O2       0.16180    0.22650    0.72650   1.00
O2       0.22650    0.16180    0.72650   1.00
O2       0.22650    0.22650    0.66180   1.00
C1       0.25000    0.25000    0.85520   1.00
C1       0.25000    0.35520    0.75000   1.00
C1       0.14480    0.25000    0.75000   1.00
C1       0.35520    0.25000    0.75000   1.00
C1       0.25000    0.14480    0.75000   1.00
C1       0.25000    0.25000    0.64480   1.00
O1       0.25000    0.75000    0.25000   1.00
Zn1      0.21720    0.78280    0.28280   1.00
Zn1      0.28280    0.71720    0.28280   1.00
Zn1      0.28280    0.78280    0.21720   1.00
Zn1      0.21720    0.71720    0.21720   1.00
O2       0.22650    0.77350    0.33820   1.00
O2       0.22650    0.83820    0.27350   1.00
O2       0.16180    0.77350    0.27350   1.00
O2       0.27350    0.72650    0.33820   1.00
O2       0.33820    0.72650    0.27350   1.00
O2       0.27350    0.66180    0.27350   1.00
O2       0.27350    0.83820    0.22650   1.00
O2       0.33820    0.77350    0.22650   1.00
O2       0.27350    0.77350    0.16180   1.00
O2       0.16180    0.72650    0.22650   1.00
O2       0.22650    0.66180    0.22650   1.00
O2       0.22650    0.72650    0.16180   1.00
C1       0.25000    0.75000    0.35520   1.00
C1       0.25000    0.85520    0.25000   1.00
C1       0.14480    0.75000    0.25000   1.00
C1       0.35520    0.75000    0.25000   1.00
C1       0.25000    0.64480    0.25000   1.00
C1       0.25000    0.75000    0.14480   1.00
O1       0.75000    0.25000    0.25000   1.00
Zn1      0.71720    0.28280    0.28280   1.00
Zn1      0.78280    0.21720    0.28280   1.00
Zn1      0.78280    0.28280    0.21720   1.00
Zn1      0.71720    0.21720    0.21720   1.00
O2       0.72650    0.27350    0.33820   1.00
O2       0.72650    0.33820    0.27350   1.00
O2       0.66180    0.27350    0.27350   1.00
O2       0.77350    0.22650    0.33820   1.00
O2       0.83820    0.22650    0.27350   1.00
O2       0.77350    0.16180    0.27350   1.00
O2       0.77350    0.33820    0.22650   1.00
O2       0.83820    0.27350    0.22650   1.00
O2       0.77350    0.27350    0.16180   1.00
O2       0.66180    0.22650    0.22650   1.00
O2       0.72650    0.16180    0.22650   1.00
O2       0.72650    0.22650    0.16180   1.00
C1       0.75000    0.25000    0.35520   1.00
C1       0.75000    0.35520    0.25000   1.00
C1       0.64480    0.25000    0.25000   1.00
C1       0.85520    0.25000    0.25000   1.00
C1       0.75000    0.14480    0.25000   1.00
C1       0.75000    0.25000    0.14480   1.00
O1       0.25000    0.25000    0.25000   1.00
Zn1      0.28280    0.21720    0.21720   1.00
Zn1      0.21720    0.28280    0.21720   1.00
Zn1      0.21720    0.21720    0.28280   1.00
Zn1      0.28280    0.28280    0.28280   1.00
O2       0.27350    0.22650    0.16180   1.00
O2       0.27350    0.16180    0.22650   1.00
O2       0.33820    0.22650    0.22650   1.00
O2       0.22650    0.27350    0.16180   1.00
O2       0.16180    0.27350    0.22650   1.00
O2       0.22650    0.33820    0.22650   1.00
O2       0.22650    0.16180    0.27350   1.00
O2       0.16180    0.22650    0.27350   1.00
O2       0.22650    0.22650    0.33820   1.00
O2       0.33820    0.27350    0.27350   1.00
O2       0.27350    0.33820    0.27350   1.00
O2       0.27350    0.27350    0.33820   1.00
C1       0.25000    0.25000    0.14480   1.00
C1       0.25000    0.14480    0.25000   1.00
C1       0.35520    0.25000    0.25000   1.00
C1       0.14480    0.25000    0.25000   1.00
C1       0.25000    0.35520    0.25000   1.00
C1       0.25000    0.25000    0.35520   1.00
O1       0.75000    0.75000    0.25000   1.00
Zn1      0.78280    0.71720    0.21720   1.00
Zn1      0.71720    0.78280    0.21720   1.00
Zn1      0.71720    0.71720    0.28280   1.00
Zn1      0.78280    0.78280    0.28280   1.00
O2       0.77350    0.72650    0.16180   1.00
O2       0.77350    0.66180    0.22650   1.00
O2       0.83820    0.72650    0.22650   1.00
O2       0.72650    0.77350    0.16180   1.00
O2       0.66180    0.77350    0.22650   1.00
O2       0.72650    0.83820    0.22650   1.00
O2       0.72650    0.66180    0.27350   1.00
O2       0.66180    0.72650    0.27350   1.00
O2       0.72650    0.72650    0.33820   1.00
O2       0.83820    0.77350    0.27350   1.00
O2       0.77350    0.83820    0.27350   1.00
O2       0.77350    0.77350    0.33820   1.00
C1       0.75000    0.75000    0.14480   1.00
C1       0.75000    0.64480    0.25000   1.00
C1       0.85520    0.75000    0.25000   1.00
C1       0.64480    0.75000    0.25000   1.00
C1       0.75000    0.85520    0.25000   1.00
C1       0.75000    0.75000    0.35520   1.00
O1       0.75000    0.25000    0.75000   1.00
Zn1      0.78280    0.21720    0.71720   1.00
Zn1      0.71720    0.28280    0.71720   1.00
Zn1      0.71720    0.21720    0.78280   1.00
Zn1      0.78280    0.28280    0.78280   1.00
O2       0.77350    0.22650    0.66180   1.00
O2       0.77350    0.16180    0.72650   1.00
O2       0.83820    0.22650    0.72650   1.00
O2       0.72650    0.27350    0.66180   1.00
O2       0.66180    0.27350    0.72650   1.00
O2       0.72650    0.33820    0.72650   1.00
O2       0.72650    0.16180    0.77350   1.00
O2       0.66180    0.22650    0.77350   1.00
O2       0.72650    0.22650    0.83820   1.00
O2       0.83820    0.27350    0.77350   1.00
O2       0.77350    0.33820    0.77350   1.00
O2       0.77350    0.27350    0.83820   1.00
C1       0.75000    0.25000    0.64480   1.00
C1       0.75000    0.14480    0.75000   1.00
C1       0.85520    0.25000    0.75000   1.00
C1       0.64480    0.25000    0.75000   1.00
C1       0.75000    0.35520    0.75000   1.00
C1       0.75000    0.25000    0.85520   1.00
O1       0.25000    0.75000    0.75000   1.00
Zn1      0.28280    0.71720    0.71720   1.00
Zn1      0.21720    0.78280    0.71720   1.00
Zn1      0.21720    0.71720    0.78280   1.00
Zn1      0.28280    0.78280    0.78280   1.00
O2       0.27350    0.72650    0.66180   1.00
O2       0.27350    0.66180    0.72650   1.00
O2       0.33820    0.72650    0.72650   1.00
O2       0.22650    0.77350    0.66180   1.00
O2       0.16180    0.77350    0.72650   1.00
O2       0.22650    0.83820    0.72650   1.00
O2       0.22650    0.66180    0.77350   1.00
O2       0.16180    0.72650    0.77350   1.00
O2       0.22650    0.72650    0.83820   1.00
O2       0.33820    0.77350    0.77350   1.00
O2       0.27350    0.83820    0.77350   1.00
O2       0.27350    0.77350    0.83820   1.00
C1       0.25000    0.75000    0.64480   1.00
C1       0.25000    0.64480    0.75000   1.00
C1       0.35520    0.75000    0.75000   1.00
C1       0.14480    0.75000    0.75000   1.00
C1       0.25000    0.85520    0.75000   1.00
C1       0.25000    0.75000    0.85520   1.00
O1       0.91500    0.91500    0.91500   1.00
Zn1      0.88220    0.94780    0.94780   1.00
Zn1      0.94780    0.88220    0.94780   1.00
Zn1      0.94780    0.94780    0.88220   1.00
Zn1      0.88220    0.88220    0.88220   1.00
O2       0.89150    0.93850    1.00320   1.00
O2       0.89150    1.00320    0.93850   1.00
O2       0.82680    0.93850    0.93850   1.00
O2       0.93850    0.89150    1.00320   1.00
O2       1.00320    0.89150    0.93850   1.00
O2       0.93850    0.82680    0.93850   1.00
O2       0.93850    1.00320    0.89150   1.00
O2       1.00320    0.93850    0.89150   1.00
O2       0.93850    0.93850    0.82680   1.00
O2       0.82680    0.89150    0.89150   1.00
O2       0.89150    0.82680    0.89150   1.00
O2       0.89150    0.89150    0.82680   1.00
C1       0.91500    0.91500    1.02020   1.00
C1       0.91500    1.02020    0.91500   1.00
C1       0.80980    0.91500    0.91500   1.00
C1       1.02020    0.91500    0.91500   1.00
C1       0.91500    0.80980    0.91500   1.00
C1       0.91500    0.91500    0.80980   1.00
O1       0.41500    0.41500    0.91500   1.00
Zn1      0.38220    0.44780    0.94780   1.00
Zn1      0.44780    0.38220    0.94780   1.00
Zn1      0.44780    0.44780    0.88220   1.00
Zn1      0.38220    0.38220    0.88220   1.00
O2       0.39150    0.43850    1.00320   1.00
O2       0.39150    0.50320    0.93850   1.00
O2       0.32680    0.43850    0.93850   1.00
O2       0.43850    0.39150    1.00320   1.00
O2       0.50320    0.39150    0.93850   1.00
O2       0.43850    0.32680    0.93850   1.00
O2       0.43850    0.50320    0.89150   1.00
O2       0.50320    0.43850    0.89150   1.00
O2       0.43850    0.43850    0.82680   1.00
O2       0.32680    0.39150    0.89150   1.00
O2       0.39150    0.32680    0.89150   1.00
O2       0.39150    0.39150    0.82680   1.00
C1       0.41500    0.41500    1.02020   1.00
C1       0.41500    0.52020    0.91500   1.00
C1       0.30980    0.41500    0.91500   1.00
C1       0.52020    0.41500    0.91500   1.00
C1       0.41500    0.30980    0.91500   1.00
C1       0.41500    0.41500    0.80980   1.00
O1       0.41500    0.91500    0.41500   1.00
Zn1      0.38220    0.94780    0.44780   1.00
Zn1      0.44780    0.88220    0.44780   1.00
Zn1      0.44780    0.94780    0.38220   1.00
Zn1      0.38220    0.88220    0.38220   1.00
O2       0.39150    0.93850    0.50320   1.00
O2       0.39150    1.00320    0.43850   1.00
O2       0.32680    0.93850    0.43850   1.00
O2       0.43850    0.89150    0.50320   1.00
O2       0.50320    0.89150    0.43850   1.00
O2       0.43850    0.82680    0.43850   1.00
O2       0.43850    1.00320    0.39150   1.00
O2       0.50320    0.93850    0.39150   1.00
O2       0.43850    0.93850    0.32680   1.00
O2       0.32680    0.89150    0.39150   1.00
O2       0.39150    0.82680    0.39150   1.00
O2       0.39150    0.89150    0.32680   1.00
C1       0.41500    0.91500    0.52020   1.00
C1       0.41500    1.02020    0.41500   1.00
C1       0.30980    0.91500    0.41500   1.00
C1       0.52020    0.91500    0.41500   1.00
C1       0.41500    0.80980    0.41500   1.00
C1       0.41500    0.91500    0.30980   1.00
O1       0.91500    0.41500    0.41500   1.00
Zn1      0.88220    0.44780    0.44780   1.00
Zn1      0.94780    0.38220    0.44780   1.00
Zn1      0.94780    0.44780    0.38220   1.00
Zn1      0.88220    0.38220    0.38220   1.00
O2       0.89150    0.43850    0.50320   1.00
O2       0.89150    0.50320    0.43850   1.00
O2       0.82680    0.43850    0.43850   1.00
O2       0.93850    0.39150    0.50320   1.00
O2       1.00320    0.39150    0.43850   1.00
O2       0.93850    0.32680    0.43850   1.00
O2       0.93850    0.50320    0.39150   1.00
O2       1.00320    0.43850    0.39150   1.00
O2       0.93850    0.43850    0.32680   1.00
O2       0.82680    0.39150    0.39150   1.00
O2       0.89150    0.32680    0.39150   1.00
O2       0.89150    0.39150    0.32680   1.00
C1       0.91500    0.41500    0.52020   1.00
C1       0.91500    0.52020    0.41500   1.00
C1       0.80980    0.41500    0.41500   1.00
C1       1.02020    0.41500    0.41500   1.00
C1       0.91500    0.30980    0.41500   1.00
C1       0.91500    0.41500    0.30980   1.00
O1       0.41500    0.41500    0.41500   1.00
Zn1      0.44780    0.38220    0.38220   1.00
Zn1      0.38220    0.44780    0.38220   1.00
Zn1      0.38220    0.38220    0.44780   1.00
Zn1      0.44780    0.44780    0.44780   1.00
O2       0.43850    0.39150    0.32680   1.00
O2       0.43850    0.32680    0.39150   1.00
O2       0.50320    0.39150    0.39150   1.00
O2       0.39150    0.43850    0.32680   1.00
O2       0.32680    0.43850    0.39150   1.00
O2       0.39150    0.50320    0.39150   1.00
O2       0.39150    0.32680    0.43850   1.00
O2       0.32680    0.39150    0.43850   1.00
O2       0.39150    0.39150    0.50320   1.00
O2       0.50320    0.43850    0.43850   1.00
O2       0.43850    0.50320    0.43850   1.00
O2       0.43850    0.43850    0.50320   1.00
C1       0.41500    0.41500    0.30980   1.00
C1       0.41500    0.30980    0.41500   1.00
C1       0.52020    0.41500    0.41500   1.00
C1       0.30980    0.41500    0.41500   1.00
C1       0.41500    0.52020    0.41500   1.00
C1       0.41500    0.41500    0.52020   1.00
O1       0.91500    0.91500    0.41500   1.00
Zn1      0.94780    0.88220    0.38220   1.00
Zn1      0.88220    0.94780    0.38220   1.00
Zn1      0.88220    0.88220    0.44780   1.00
Zn1      0.94780    0.94780    0.44780   1.00
O2       0.93850    0.89150    0.32680   1.00
O2       0.93850    0.82680    0.39150   1.00
O2       1.00320    0.89150    0.39150   1.00
O2       0.89150    0.93850    0.32680   1.00
O2       0.82680    0.93850    0.39150   1.00
O2       0.89150    1.00320    0.39150   1.00
O2       0.89150    0.82680    0.43850   1.00
O2       0.82680    0.89150    0.43850   1.00
O2       0.89150    0.89150    0.50320   1.00
O2       1.00320    0.93850    0.43850   1.00
O2       0.93850    1.00320    0.43850   1.00
O2       0.93850    0.93850    0.50320   1.00
C1       0.91500    0.91500    0.30980   1.00
C1       0.91500    0.80980    0.41500   1.00
C1       1.02020    0.91500    0.41500   1.00
C1       0.80980    0.91500    0.41500   1.00
C1       0.91500    1.02020    0.41500   1.00
C1       0.91500    0.91500    0.52020   1.00
O1       0.91500    0.41500    0.91500   1.00
Zn1      0.94780    0.38220    0.88220   1.00
Zn1      0.88220    0.44780    0.88220   1.00
Zn1      0.88220    0.38220    0.94780   1.00
Zn1      0.94780    0.44780    0.94780   1.00
O2       0.93850    0.39150    0.82680   1.00
O2       0.93850    0.32680    0.89150   1.00
O2       1.00320    0.39150    0.89150   1.00
O2       0.89150    0.43850    0.82680   1.00
O2       0.82680    0.43850    0.89150   1.00
O2       0.89150    0.50320    0.89150   1.00
O2       0.89150    0.32680    0.93850   1.00
O2       0.82680    0.39150    0.93850   1.00
O2       0.89150    0.39150    1.00320   1.00
O2       1.00320    0.43850    0.93850   1.00
O2       0.93850    0.50320    0.93850   1.00
O2       0.93850    0.43850    1.00320   1.00
C1       0.91500    0.41500    0.80980   1.00
C1       0.91500    0.30980    0.91500   1.00
C1       1.02020    0.41500    0.91500   1.00
C1       0.80980    0.41500    0.91500   1.00
C1       0.91500    0.52020    0.91500   1.00
C1       0.91500    0.41500    1.02020   1.00
O1       0.41500    0.91500    0.91500   1.00
Zn1      0.44780    0.88220    0.88220   1.00
Zn1      0.38220    0.94780    0.88220   1.00
Zn1      0.38220    0.88220    0.94780   1.00
Zn1      0.44780    0.94780    0.94780   1.00
O2       0.43850    0.89150    0.82680   1.00
O2       0.43850    0.82680    0.89150   1.00
O2       0.50320    0.89150    0.89150   1.00
O2       0.39150    0.93850    0.82680   1.00
O2       0.32680    0.93850    0.89150   1.00
O2       0.39150    1.00320    0.89150   1.00
O2       0.39150    0.82680    0.93850   1.00
O2       0.32680    0.89150    0.93850   1.00
O2       0.39150    0.89150    1.00320   1.00
O2       0.50320    0.93850    0.93850   1.00
O2       0.43850    1.00320    0.93850   1.00
O2       0.43850    0.93850    1.00320   1.00
C1       0.41500    0.91500    0.80980   1.00
C1       0.41500    0.80980    0.91500   1.00
C1       0.52020    0.91500    0.91500   1.00
C1       0.30980    0.91500    0.91500   1.00
C1       0.41500    1.02020    0.91500   1.00
C1       0.41500    0.91500    1.02020   1.00
C4       0.74535    0.74886    0.98025   1.00
C4       0.74415    0.74985    1.02191   1.00
C3       0.75144    0.71366    0.95897   1.00
C3       0.74486    0.71531    1.04504   1.00
C3       0.74036    0.78415    0.95854   1.00
C3       0.74212    0.78653    1.04170   1.00
C2       0.74585    0.74651    0.89595   1.00
C2       0.74368    0.75189    1.10622   1.00
C3       0.75151    0.71241    0.91811   1.00
C3       0.74483    0.71622    1.08591   1.00
C3       0.74040    0.78159    0.91696   1.00
C3       0.74236    0.78621    1.08336   1.00
H1       0.75646    0.68767    0.97237   1.00
H1       0.74503    0.68816    1.03306   1.00
C5       0.73574    0.82073    0.97835   1.00
C5       0.73968    0.82222    1.01998   1.00
H1       0.75590    0.68607    0.90451   1.00
H1       0.74553    0.69028    1.10091   1.00
H1       0.73668    0.80601    0.90052   1.00
H1       0.74121    0.81171    1.09848   1.00
C6       0.72635    0.85714    0.95515   1.00
C6       0.74174    0.86093    1.04119   1.00
H2       0.70417    0.85020    0.93345   1.00
H2       0.76474    0.85955    1.06310   1.00
H2       0.71142    0.87881    0.97286   1.00
H2       0.75230    0.88411    1.02228   1.00
C6       0.76321    0.87637    0.93606   1.00
C6       0.70176    0.87365    1.05942   1.00
H2       0.78146    0.85374    0.92292   1.00
H2       0.68816    0.84865    1.07383   1.00
C6       0.75624    0.90874    0.90459   1.00
C6       0.70219    0.90837    1.08911   1.00
H2       0.78088    0.88884    0.95949   1.00
H2       0.68214    0.88123    1.03546   1.00
C6       0.73673    0.89194    0.86735   1.00
C6       0.72439    0.89764    1.12708   1.00
C6       0.73092    0.94253    0.92074   1.00
C6       0.72059    0.94552    1.07107   1.00
C6       0.79637    0.92592    0.89245   1.00
C6       0.65943    0.91809    1.10054   1.00
H2       0.75358    0.86758    0.85558   1.00
H2       0.71250    0.87114    1.14020   1.00
H2       0.70732    0.88149    0.87330   1.00
H2       0.75529    0.89277    1.12154   1.00
H2       0.73447    0.91410    0.84459   1.00
H2       0.72221    0.92098    1.14863   1.00
H2       0.72856    0.96619    0.89955   1.00
H2       0.71822    0.97027    1.09098   1.00
H2       0.70142    0.93256    0.92725   1.00
H2       0.75149    0.94110    1.06494   1.00
H2       0.74359    0.95435    0.94745   1.00
H2       0.70602    0.95324    1.04385   1.00
H2       0.81529    0.90328    0.88042   1.00
H2       0.64518    0.89288    1.11383   1.00
H2       0.79305    0.94854    0.87025   1.00
H2       0.65822    0.94206    1.12149   1.00
H2       0.81128    0.93896    0.91739   1.00
H2       0.64242    0.92668    1.07502   1.00
C4       0.74886    0.98025    0.74535   1.00
C4       0.74985    1.02191    0.74415   1.00
C3       0.71366    0.95897    0.75144   1.00
C3       0.71531    1.04504    0.74486   1.00
C3       0.78415    0.95854    0.74036   1.00
C3       0.78653    1.04170    0.74212   1.00
C2       0.74651    0.89595    0.74585   1.00
C2       0.75189    1.10622    0.74368   1.00
C3       0.71241    0.91811    0.75151   1.00
C3       0.71622    1.08591    0.74483   1.00
C3       0.78159    0.91696    0.74040   1.00
C3       0.78621    1.08336    0.74236   1.00
H1       0.68767    0.97237    0.75646   1.00
H1       0.68816    1.03306    0.74503   1.00
C5       0.82073    0.97835    0.73574   1.00
C5       0.82222    1.01998    0.73968   1.00
H1       0.68607    0.90451    0.75590   1.00
H1       0.69028    1.10091    0.74553   1.00
H1       0.80601    0.90052    0.73668   1.00
H1       0.81171    1.09848    0.74121   1.00
C6       0.85714    0.95515    0.72635   1.00
C6       0.86093    1.04119    0.74174   1.00
H2       0.85020    0.93345    0.70417   1.00
H2       0.85955    1.06310    0.76474   1.00
H2       0.87881    0.97286    0.71142   1.00
H2       0.88411    1.02228    0.75230   1.00
C6       0.87637    0.93606    0.76321   1.00
C6       0.87365    1.05942    0.70176   1.00
H2       0.85374    0.92292    0.78146   1.00
H2       0.84865    1.07383    0.68816   1.00
C6       0.90874    0.90459    0.75624   1.00
C6       0.90837    1.08911    0.70219   1.00
H2       0.88884    0.95949    0.78088   1.00
H2       0.88123    1.03546    0.68214   1.00
C6       0.89194    0.86735    0.73673   1.00
C6       0.89764    1.12708    0.72439   1.00
C6       0.94253    0.92074    0.73092   1.00
C6       0.94552    1.07107    0.72059   1.00
C6       0.92592    0.89245    0.79637   1.00
C6       0.91809    1.10054    0.65943   1.00
H2       0.86758    0.85558    0.75358   1.00
H2       0.87114    1.14020    0.71250   1.00
H2       0.88149    0.87330    0.70732   1.00
H2       0.89277    1.12154    0.75529   1.00
H2       0.91410    0.84459    0.73447   1.00
H2       0.92098    1.14863    0.72221   1.00
H2       0.96619    0.89955    0.72856   1.00
H2       0.97027    1.09098    0.71822   1.00
H2       0.93256    0.92725    0.70142   1.00
H2       0.94110    1.06494    0.75149   1.00
H2       0.95435    0.94745    0.74359   1.00
H2       0.95324    1.04385    0.70602   1.00
H2       0.90328    0.88042    0.81529   1.00
H2       0.89288    1.11383    0.64518   1.00
H2       0.94854    0.87025    0.79305   1.00
H2       0.94206    1.12149    0.65822   1.00
H2       0.93896    0.91739    0.81128   1.00
H2       0.92668    1.07502    0.64242   1.00
C4       0.51975    0.74535    0.75114   1.00
C4       0.47809    0.74415    0.75015   1.00
C3       0.54103    0.75144    0.78634   1.00
C3       0.45496    0.74486    0.78469   1.00
C3       0.54146    0.74036    0.71585   1.00
C3       0.45830    0.74212    0.71347   1.00
C2       0.60405    0.74585    0.75349   1.00
C2       0.39378    0.74368    0.74811   1.00
C3       0.58189    0.75151    0.78759   1.00
C3       0.41409    0.74483    0.78378   1.00
C3       0.58304    0.74040    0.71841   1.00
C3       0.41664    0.74236    0.71379   1.00
H1       0.52763    0.75646    0.81233   1.00
H1       0.46694    0.74503    0.81184   1.00
C5       0.52165    0.73574    0.67927   1.00
C5       0.48002    0.73968    0.67778   1.00
H1       0.59549    0.75590    0.81393   1.00
H1       0.39909    0.74553    0.80972   1.00
H1       0.59948    0.73668    0.69399   1.00
H1       0.40152    0.74121    0.68829   1.00
C6       0.54485    0.72635    0.64286   1.00
C6       0.45881    0.74174    0.63907   1.00
H2       0.56655    0.70417    0.64980   1.00
H2       0.43690    0.76474    0.64045   1.00
H2       0.52714    0.71142    0.62119   1.00
H2       0.47772    0.75230    0.61589   1.00
C6       0.56394    0.76321    0.62363   1.00
C6       0.44058    0.70176    0.62635   1.00
H2       0.57708    0.78146    0.64626   1.00
H2       0.42617    0.68816    0.65135   1.00
C6       0.59541    0.75624    0.59126   1.00
C6       0.41089    0.70219    0.59163   1.00
H2       0.54051    0.78088    0.61116   1.00
H2       0.46454    0.68214    0.61877   1.00
C6       0.63265    0.73673    0.60806   1.00
C6       0.37292    0.72439    0.60236   1.00
C6       0.57926    0.73092    0.55747   1.00
C6       0.42893    0.72059    0.55448   1.00
C6       0.60755    0.79637    0.57408   1.00
C6       0.39946    0.65943    0.58191   1.00
H2       0.64442    0.75358    0.63242   1.00
H2       0.35980    0.71250    0.62886   1.00
H2       0.62670    0.70732    0.61851   1.00
H2       0.37846    0.75529    0.60723   1.00
H2       0.65541    0.73447    0.58590   1.00
H2       0.35137    0.72221    0.57902   1.00
H2       0.60045    0.72856    0.53381   1.00
H2       0.40902    0.71822    0.52973   1.00
H2       0.57275    0.70142    0.56744   1.00
H2       0.43506    0.75149    0.55890   1.00
H2       0.55255    0.74359    0.54565   1.00
H2       0.45615    0.70602    0.54676   1.00
H2       0.61958    0.81529    0.59672   1.00
H2       0.38617    0.64518    0.60712   1.00
H2       0.62975    0.79305    0.55146   1.00
H2       0.37851    0.65822    0.55794   1.00
H2       0.58261    0.81128    0.56104   1.00
H2       0.42498    0.64242    0.57332   1.00
C4       0.98025    0.74535    0.74886   1.00
C4       1.02191    0.74415    0.74985   1.00
C3       0.95897    0.75144    0.71366   1.00
C3       1.04504    0.74486    0.71531   1.00
C3       0.95854    0.74036    0.78415   1.00
C3       1.04170    0.74212    0.78653   1.00
C2       0.89595    0.74585    0.74651   1.00
C2       1.10622    0.74368    0.75189   1.00
C3       0.91811    0.75151    0.71241   1.00
C3       1.08591    0.74483    0.71622   1.00
C3       0.91696    0.74040    0.78159   1.00
C3       1.08336    0.74236    0.78621   1.00
H1       0.97237    0.75646    0.68767   1.00
H1       1.03306    0.74503    0.68816   1.00
C5       0.97835    0.73574    0.82073   1.00
C5       1.01998    0.73968    0.82222   1.00
H1       0.90451    0.75590    0.68607   1.00
H1       1.10091    0.74553    0.69028   1.00
H1       0.90052    0.73668    0.80601   1.00
H1       1.09848    0.74121    0.81171   1.00
C6       0.95515    0.72635    0.85714   1.00
C6       1.04119    0.74174    0.86093   1.00
H2       0.93345    0.70417    0.85020   1.00
H2       1.06310    0.76474    0.85955   1.00
H2       0.97286    0.71142    0.87881   1.00
H2       1.02228    0.75230    0.88411   1.00
C6       0.93606    0.76321    0.87637   1.00
C6       1.05942    0.70176    0.87365   1.00
H2       0.92292    0.78146    0.85374   1.00
H2       1.07383    0.68816    0.84865   1.00
C6       0.90459    0.75624    0.90874   1.00
C6       1.08911    0.70219    0.90837   1.00
H2       0.95949    0.78088    0.88884   1.00
H2       1.03546    0.68214    0.88123   1.00
C6       0.86735    0.73673    0.89194   1.00
C6       1.12708    0.72439    0.89764   1.00
C6       0.92074    0.73092    0.94253   1.00
C6       1.07107    0.72059    0.94552   1.00
C6       0.89245    0.79637    0.92592   1.00
C6       1.10054    0.65943    0.91809   1.00
H2       0.85558    0.75358    0.86758   1.00
H2       1.14020    0.71250    0.87114   1.00
H2       0.87330    0.70732    0.88149   1.00
H2       1.12154    0.75529    0.89277   1.00
H2       0.84459    0.73447    0.91410   1.00
H2       1.14863    0.72221    0.92098   1.00
H2       0.89955    0.72856    0.96619   1.00
H2       1.09098    0.71822    0.97027   1.00
H2       0.92725    0.70142    0.93256   1.00
H2       1.06494    0.75149    0.94110   1.00
H2       0.94745    0.74359    0.95435   1.00
H2       1.04385    0.70602    0.95324   1.00
H2       0.88042    0.81529    0.90328   1.00
H2       1.11383    0.64518    0.89288   1.00
H2       0.87025    0.79305    0.94854   1.00
H2       1.12149    0.65822    0.94206   1.00
H2       0.91739    0.81128    0.93896   1.00
H2       1.07502    0.64242    0.92668   1.00
C4       0.75114    0.51975    0.74535   1.00
C4       0.75015    0.47809    0.74415   1.00
C3       0.78634    0.54103    0.75144   1.00
C3       0.78469    0.45496    0.74486   1.00
C3       0.71585    0.54146    0.74036   1.00
C3       0.71347    0.45830    0.74212   1.00
C2       0.75349    0.60405    0.74585   1.00
C2       0.74811    0.39378    0.74368   1.00
C3       0.78759    0.58189    0.75151   1.00
C3       0.78378    0.41409    0.74483   1.00
C3       0.71841    0.58304    0.74040   1.00
C3       0.71379    0.41664    0.74236   1.00
H1       0.81233    0.52763    0.75646   1.00
H1       0.81184    0.46694    0.74503   1.00
C5       0.67927    0.52165    0.73574   1.00
C5       0.67778    0.48002    0.73968   1.00
H1       0.81393    0.59549    0.75590   1.00
H1       0.80972    0.39909    0.74553   1.00
H1       0.69399    0.59948    0.73668   1.00
H1       0.68829    0.40152    0.74121   1.00
C6       0.64286    0.54485    0.72635   1.00
C6       0.63907    0.45881    0.74174   1.00
H2       0.64980    0.56655    0.70417   1.00
H2       0.64045    0.43690    0.76474   1.00
H2       0.62119    0.52714    0.71142   1.00
H2       0.61589    0.47772    0.75230   1.00
C6       0.62363    0.56394    0.76321   1.00
C6       0.62635    0.44058    0.70176   1.00
H2       0.64626    0.57708    0.78146   1.00
H2       0.65135    0.42617    0.68816   1.00
C6       0.59126    0.59541    0.75624   1.00
C6       0.59163    0.41089    0.70219   1.00
H2       0.61116    0.54051    0.78088   1.00
H2       0.61877    0.46454    0.68214   1.00
C6       0.60806    0.63265    0.73673   1.00
C6       0.60236    0.37292    0.72439   1.00
C6       0.55747    0.57926    0.73092   1.00
C6       0.55448    0.42893    0.72059   1.00
C6       0.57408    0.60755    0.79637   1.00
C6       0.58191    0.39946    0.65943   1.00
H2       0.63242    0.64442    0.75358   1.00
H2       0.62886    0.35980    0.71250   1.00
H2       0.61851    0.62670    0.70732   1.00
H2       0.60723    0.37846    0.75529   1.00
H2       0.58590    0.65541    0.73447   1.00
H2       0.57902    0.35137    0.72221   1.00
H2       0.53381    0.60045    0.72856   1.00
H2       0.52973    0.40902    0.71822   1.00
H2       0.56744    0.57275    0.70142   1.00
H2       0.55890    0.43506    0.75149   1.00
H2       0.54565    0.55255    0.74359   1.00
H2       0.54676    0.45615    0.70602   1.00
H2       0.59672    0.61958    0.81529   1.00
H2       0.60712    0.38617    0.64518   1.00
H2       0.55146    0.62975    0.79305   1.00
H2       0.55794    0.37851    0.65822   1.00
H2       0.56104    0.58261    0.81128   1.00
H2       0.57332    0.42498    0.64242   1.00
C4       0.74535    0.75114    0.51975   1.00
C4       0.74415    0.75015    0.47809   1.00
C3       0.75144    0.78634    0.54103   1.00
C3       0.74486    0.78469    0.45496   1.00
C3       0.74036    0.71585    0.54146   1.00
C3       0.74212    0.71347    0.45830   1.00
C2       0.74585    0.75349    0.60405   1.00
C2       0.74368    0.74811    0.39378   1.00
C3       0.75151    0.78759    0.58189   1.00
C3       0.74483    0.78378    0.41409   1.00
C3       0.74040    0.71841    0.58304   1.00
C3       0.74236    0.71379    0.41664   1.00
H1       0.75646    0.81233    0.52763   1.00
H1       0.74503    0.81184    0.46694   1.00
C5       0.73574    0.67927    0.52165   1.00
C5       0.73968    0.67778    0.48002   1.00
H1       0.75590    0.81393    0.59549   1.00
H1       0.74553    0.80972    0.39909   1.00
H1       0.73668    0.69399    0.59948   1.00
H1       0.74121    0.68829    0.40152   1.00
C6       0.72635    0.64286    0.54485   1.00
C6       0.74174    0.63907    0.45881   1.00
H2       0.70417    0.64980    0.56655   1.00
H2       0.76474    0.64045    0.43690   1.00
H2       0.71142    0.62119    0.52714   1.00
H2       0.75230    0.61589    0.47772   1.00
C6       0.76321    0.62363    0.56394   1.00
C6       0.70176    0.62635    0.44058   1.00
H2       0.78146    0.64626    0.57708   1.00
H2       0.68816    0.65135    0.42617   1.00
C6       0.75624    0.59126    0.59541   1.00
C6       0.70219    0.59163    0.41089   1.00
H2       0.78088    0.61116    0.54051   1.00
H2       0.68214    0.61877    0.46454   1.00
C6       0.73673    0.60806    0.63265   1.00
C6       0.72439    0.60236    0.37292   1.00
C6       0.73092    0.55747    0.57926   1.00
C6       0.72059    0.55448    0.42893   1.00
C6       0.79637    0.57408    0.60755   1.00
C6       0.65943    0.58191    0.39946   1.00
H2       0.75358    0.63242    0.64442   1.00
H2       0.71250    0.62886    0.35980   1.00
H2       0.70732    0.61851    0.62670   1.00
H2       0.75529    0.60723    0.37846   1.00
H2       0.73447    0.58590    0.65541   1.00
H2       0.72221    0.57902    0.35137   1.00
H2       0.72856    0.53381    0.60045   1.00
H2       0.71822    0.52973    0.40902   1.00
H2       0.70142    0.56744    0.57275   1.00
H2       0.75149    0.55890    0.43506   1.00
H2       0.74359    0.54565    0.55255   1.00
H2       0.70602    0.54676    0.45615   1.00
H2       0.81529    0.59672    0.61958   1.00
H2       0.64518    0.60712    0.38617   1.00
H2       0.79305    0.55146    0.62975   1.00
H2       0.65822    0.55794    0.37851   1.00
H2       0.81128    0.56104    0.58261   1.00
H2       0.64242    0.57332    0.42498   1.00
C4       0.24535    0.24886    0.98025   1.00
C4       0.24415    0.24985    1.02191   1.00
C3       0.25144    0.21366    0.95897   1.00
C3       0.24486    0.21531    1.04504   1.00
C3       0.24036    0.28415    0.95854   1.00
C3       0.24212    0.28653    1.04170   1.00
C2       0.24585    0.24651    0.89595   1.00
C2       0.24368    0.25189    1.10622   1.00
C3       0.25151    0.21241    0.91811   1.00
C3       0.24483    0.21622    1.08591   1.00
C3       0.24040    0.28159    0.91696   1.00
C3       0.24236    0.28621    1.08336   1.00
H1       0.25646    0.18767    0.97237   1.00
H1       0.24503    0.18816    1.03306   1.00
C5       0.23574    0.32073    0.97835   1.00
C5       0.23968    0.32222    1.01998   1.00
H1       0.25590    0.18607    0.90451   1.00
H1       0.24553    0.19028    1.10091   1.00
H1       0.23668    0.30601    0.90052   1.00
H1       0.24121    0.31171    1.09848   1.00
C6       0.22635    0.35714    0.95515   1.00
C6       0.24174    0.36093    1.04119   1.00
H2       0.20417    0.35020    0.93345   1.00
H2       0.26474    0.35955    1.06310   1.00
H2       0.21142    0.37881    0.97286   1.00
H2       0.25230    0.38411    1.02228   1.00
C6       0.26321    0.37637    0.93606   1.00
C6       0.20176    0.37365    1.05942   1.00
H2       0.28146    0.35374    0.92292   1.00
H2       0.18816    0.34865    1.07383   1.00
C6       0.25624    0.40874    0.90459   1.00
C6       0.20219    0.40837    1.08911   1.00
H2       0.28088    0.38884    0.95949   1.00
H2       0.18214    0.38123    1.03546   1.00
C6       0.23673    0.39194    0.86735   1.00
C6       0.22439    0.39764    1.12708   1.00
C6       0.23092    0.44253    0.92074   1.00
C6       0.22059    0.44552    1.07107   1.00
C6       0.29637    0.42592    0.89245   1.00
C6       0.15943    0.41809    1.10054   1.00
H2       0.25358    0.36758    0.85558   1.00
H2       0.21250    0.37114    1.14020   1.00
H2       0.20732    0.38149    0.87330   1.00
H2       0.25529    0.39277    1.12154   1.00
H2       0.23447    0.41410    0.84459   1.00
H2       0.22221    0.42098    1.14863   1.00
H2       0.22856    0.46619    0.89955   1.00
H2       0.21822    0.47027    1.09098   1.00
H2       0.20142    0.43256    0.92725   1.00
H2       0.25149    0.44110    1.06494   1.00
H2       0.24359    0.45435    0.94745   1.00
H2       0.20602    0.45324    1.04385   1.00
H2       0.31529    0.40328    0.88042   1.00
H2       0.14518    0.39288    1.11383   1.00
H2       0.29305    0.44854    0.87025   1.00
H2       0.15822    0.44206    1.12149   1.00
H2       0.31128    0.43896    0.91739   1.00
H2       0.14242    0.42668    1.07502   1.00
C4       0.24886    0.48025    0.74535   1.00
C4       0.24985    0.52191    0.74415   1.00
C3       0.21366    0.45897    0.75144   1.00
C3       0.21531    0.54504    0.74486   1.00
C3       0.28415    0.45854    0.74036   1.00
C3       0.28653    0.54170    0.74212   1.00
C2       0.24651    0.39595    0.74585   1.00
C2       0.25189    0.60622    0.74368   1.00
C3       0.21241    0.41811    0.75151   1.00
C3       0.21622    0.58591    0.74483   1.00
C3       0.28159    0.41696    0.74040   1.00
C3       0.28621    0.58336    0.74236   1.00
H1       0.18767    0.47237    0.75646   1.00
H1       0.18816    0.53306    0.74503   1.00
C5       0.32073    0.47835    0.73574   1.00
C5       0.32222    0.51998    0.73968   1.00
H1       0.18607    0.40451    0.75590   1.00
H1       0.19028    0.60091    0.74553   1.00
H1       0.30601    0.40052    0.73668   1.00
H1       0.31171    0.59848    0.74121   1.00
C6       0.35714    0.45515    0.72635   1.00
C6       0.36093    0.54119    0.74174   1.00
H2       0.35020    0.43345    0.70417   1.00
H2       0.35955    0.56310    0.76474   1.00
H2       0.37881    0.47286    0.71142   1.00
H2       0.38411    0.52228    0.75230   1.00
C6       0.37637    0.43606    0.76321   1.00
C6       0.37365    0.55942    0.70176   1.00
H2       0.35374    0.42292    0.78146   1.00
H2       0.34865    0.57383    0.68816   1.00
C6       0.40874    0.40459    0.75624   1.00
C6       0.40837    0.58911    0.70219   1.00
H2       0.38884    0.45949    0.78088   1.00
H2       0.38123    0.53546    0.68214   1.00
C6       0.39194    0.36735    0.73673   1.00
C6       0.39764    0.62708    0.72439   1.00
C6       0.44253    0.42074    0.73092   1.00
C6       0.44552    0.57107    0.72059   1.00
C6       0.42592    0.39245    0.79637   1.00
C6       0.41809    0.60054    0.65943   1.00
H2       0.36758    0.35558    0.75358   1.00
H2       0.37114    0.64020    0.71250   1.00
H2       0.38149    0.37330    0.70732   1.00
H2       0.39277    0.62154    0.75529   1.00
H2       0.41410    0.34459    0.73447   1.00
H2       0.42098    0.64863    0.72221   1.00
H2       0.46619    0.39955    0.72856   1.00
H2       0.47027    0.59098    0.71822   1.00
H2       0.43256    0.42725    0.70142   1.00
H2       0.44110    0.56494    0.75149   1.00
H2       0.45435    0.44745    0.74359   1.00
H2       0.45324    0.54385    0.70602   1.00
H2       0.40328    0.38042    0.81529   1.00
H2       0.39288    0.61383    0.64518   1.00
H2       0.44854    0.37025    0.79305   1.00
H2       0.44206    0.62149    0.65822   1.00
H2       0.43896    0.41739    0.81128   1.00
H2       0.42668    0.57502    0.64242   1.00
C4       0.01975    0.24535    0.75114   1.00
C4       -0.02191   0.24415    0.75015   1.00
C3       0.04103    0.25144    0.78634   1.00
C3       -0.04504   0.24486    0.78469   1.00
C3       0.04146    0.24036    0.71585   1.00
C3       -0.04170   0.24212    0.71347   1.00
C2       0.10405    0.24585    0.75349   1.00
C2       -0.10622   0.24368    0.74811   1.00
C3       0.08189    0.25151    0.78759   1.00
C3       -0.08591   0.24483    0.78378   1.00
C3       0.08304    0.24040    0.71841   1.00
C3       -0.08336   0.24236    0.71379   1.00
H1       0.02763    0.25646    0.81233   1.00
H1       -0.03306   0.24503    0.81184   1.00
C5       0.02165    0.23574    0.67927   1.00
C5       -0.01998   0.23968    0.67778   1.00
H1       0.09549    0.25590    0.81393   1.00
H1       -0.10091   0.24553    0.80972   1.00
H1       0.09948    0.23668    0.69399   1.00
H1       -0.09848   0.24121    0.68829   1.00
C6       0.04485    0.22635    0.64286   1.00
C6       -0.04119   0.24174    0.63907   1.00
H2       0.06655    0.20417    0.64980   1.00
H2       -0.06310   0.26474    0.64045   1.00
H2       0.02714    0.21142    0.62119   1.00
H2       -0.02228   0.25230    0.61589   1.00
C6       0.06394    0.26321    0.62363   1.00
C6       -0.05942   0.20176    0.62635   1.00
H2       0.07708    0.28146    0.64626   1.00
H2       -0.07383   0.18816    0.65135   1.00
C6       0.09541    0.25624    0.59126   1.00
C6       -0.08911   0.20219    0.59163   1.00
H2       0.04051    0.28088    0.61116   1.00
H2       -0.03546   0.18214    0.61877   1.00
C6       0.13265    0.23673    0.60806   1.00
C6       -0.12708   0.22439    0.60236   1.00
C6       0.07926    0.23092    0.55747   1.00
C6       -0.07107   0.22059    0.55448   1.00
C6       0.10755    0.29637    0.57408   1.00
C6       -0.10054   0.15943    0.58191   1.00
H2       0.14442    0.25358    0.63242   1.00
H2       -0.14020   0.21250    0.62886   1.00
H2       0.12670    0.20732    0.61851   1.00
H2       -0.12154   0.25529    0.60723   1.00
H2       0.15541    0.23447    0.58590   1.00
H2       -0.14863   0.22221    0.57902   1.00
H2       0.10045    0.22856    0.53381   1.00
H2       -0.09098   0.21822    0.52973   1.00
H2       0.07275    0.20142    0.56744   1.00
H2       -0.06494   0.25149    0.55890   1.00
H2       0.05255    0.24359    0.54565   1.00
H2       -0.04385   0.20602    0.54676   1.00
H2       0.11958    0.31529    0.59672   1.00
H2       -0.11383   0.14518    0.60712   1.00
H2       0.12975    0.29305    0.55146   1.00
H2       -0.12149   0.15822    0.55794   1.00
H2       0.08261    0.31128    0.56104   1.00
H2       -0.07502   0.14242    0.57332   1.00
C4       0.48025    0.24535    0.74886   1.00
C4       0.52191    0.24415    0.74985   1.00
C3       0.45897    0.25144    0.71366   1.00
C3       0.54504    0.24486    0.71531   1.00
C3       0.45854    0.24036    0.78415   1.00
C3       0.54170    0.24212    0.78653   1.00
C2       0.39595    0.24585    0.74651   1.00
C2       0.60622    0.24368    0.75189   1.00
C3       0.41811    0.25151    0.71241   1.00
C3       0.58591    0.24483    0.71622   1.00
C3       0.41696    0.24040    0.78159   1.00
C3       0.58336    0.24236    0.78621   1.00
H1       0.47237    0.25646    0.68767   1.00
H1       0.53306    0.24503    0.68816   1.00
C5       0.47835    0.23574    0.82073   1.00
C5       0.51998    0.23968    0.82222   1.00
H1       0.40451    0.25590    0.68607   1.00
H1       0.60091    0.24553    0.69028   1.00
H1       0.40052    0.23668    0.80601   1.00
H1       0.59848    0.24121    0.81171   1.00
C6       0.45515    0.22635    0.85714   1.00
C6       0.54119    0.24174    0.86093   1.00
H2       0.43345    0.20417    0.85020   1.00
H2       0.56310    0.26474    0.85955   1.00
H2       0.47286    0.21142    0.87881   1.00
H2       0.52228    0.25230    0.88411   1.00
C6       0.43606    0.26321    0.87637   1.00
C6       0.55942    0.20176    0.87365   1.00
H2       0.42292    0.28146    0.85374   1.00
H2       0.57383    0.18816    0.84865   1.00
C6       0.40459    0.25624    0.90874   1.00
C6       0.58911    0.20219    0.90837   1.00
H2       0.45949    0.28088    0.88884   1.00
H2       0.53546    0.18214    0.88123   1.00
C6       0.36735    0.23673    0.89194   1.00
C6       0.62708    0.22439    0.89764   1.00
C6       0.42074    0.23092    0.94253   1.00
C6       0.57107    0.22059    0.94552   1.00
C6       0.39245    0.29637    0.92592   1.00
C6       0.60054    0.15943    0.91809   1.00
H2       0.35558    0.25358    0.86758   1.00
H2       0.64020    0.21250    0.87114   1.00
H2       0.37330    0.20732    0.88149   1.00
H2       0.62154    0.25529    0.89277   1.00
H2       0.34459    0.23447    0.91410   1.00
H2       0.64863    0.22221    0.92098   1.00
H2       0.39955    0.22856    0.96619   1.00
H2       0.59098    0.21822    0.97027   1.00
H2       0.42725    0.20142    0.93256   1.00
H2       0.56494    0.25149    0.94110   1.00
H2       0.44745    0.24359    0.95435   1.00
H2       0.54385    0.20602    0.95324   1.00
H2       0.38042    0.31529    0.90328   1.00
H2       0.61383    0.14518    0.89288   1.00
H2       0.37025    0.29305    0.94854   1.00
H2       0.62149    0.15822    0.94206   1.00
H2       0.41739    0.31128    0.93896   1.00
H2       0.57502    0.14242    0.92668   1.00
C4       0.25114    0.01975    0.74535   1.00
C4       0.25015    -0.02191   0.74415   1.00
C3       0.28634    0.04103    0.75144   1.00
C3       0.28469    -0.04504   0.74486   1.00
C3       0.21585    0.04146    0.74036   1.00
C3       0.21347    -0.04170   0.74212   1.00
C2       0.25349    0.10405    0.74585   1.00
C2       0.24811    -0.10622   0.74368   1.00
C3       0.28759    0.08189    0.75151   1.00
C3       0.28378    -0.08591   0.74483   1.00
C3       0.21841    0.08304    0.74040   1.00
C3       0.21379    -0.08336   0.74236   1.00
H1       0.31233    0.02763    0.75646   1.00
H1       0.31184    -0.03306   0.74503   1.00
C5       0.17927    0.02165    0.73574   1.00
C5       0.17778    -0.01998   0.73968   1.00
H1       0.31393    0.09549    0.75590   1.00
H1       0.30972    -0.10091   0.74553   1.00
H1       0.19399    0.09948    0.73668   1.00
H1       0.18829    -0.09848   0.74121   1.00
C6       0.14286    0.04485    0.72635   1.00
C6       0.13907    -0.04119   0.74174   1.00
H2       0.14980    0.06655    0.70417   1.00
H2       0.14045    -0.06310   0.76474   1.00
H2       0.12119    0.02714    0.71142   1.00
H2       0.11589    -0.02228   0.75230   1.00
C6       0.12363    0.06394    0.76321   1.00
C6       0.12635    -0.05942   0.70176   1.00
H2       0.14626    0.07708    0.78146   1.00
H2       0.15135    -0.07383   0.68816   1.00
C6       0.09126    0.09541    0.75624   1.00
C6       0.09163    -0.08911   0.70219   1.00
H2       0.11116    0.04051    0.78088   1.00
H2       0.11877    -0.03546   0.68214   1.00
C6       0.10806    0.13265    0.73673   1.00
C6       0.10236    -0.12708   0.72439   1.00
C6       0.05747    0.07926    0.73092   1.00
C6       0.05448    -0.07107   0.72059   1.00
C6       0.07408    0.10755    0.79637   1.00
C6       0.08191    -0.10054   0.65943   1.00
H2       0.13242    0.14442    0.75358   1.00
H2       0.12886    -0.14020   0.71250   1.00
H2       0.11851    0.12670    0.70732   1.00
H2       0.10723    -0.12154   0.75529   1.00
H2       0.08590    0.15541    0.73447   1.00
H2       0.07902    -0.14863   0.72221   1.00
H2       0.03381    0.10045    0.72856   1.00
H2       0.02973    -0.09098   0.71822   1.00
H2       0.06744    0.07275    0.70142   1.00
H2       0.05890    -0.06494   0.75149   1.00
H2       0.04565    0.05255    0.74359   1.00
H2       0.04676    -0.04385   0.70602   1.00
H2       0.09672    0.11958    0.81529   1.00
H2       0.10712    -0.11383   0.64518   1.00
H2       0.05146    0.12975    0.79305   1.00
H2       0.05794    -0.12149   0.65822   1.00
H2       0.06104    0.08261    0.81128   1.00
H2       0.07332    -0.07502   0.64242   1.00
C4       0.24535    0.25114    0.51975   1.00
C4       0.24415    0.25015    0.47809   1.00
C3       0.25144    0.28634    0.54103   1.00
C3       0.24486    0.28469    0.45496   1.00
C3       0.24036    0.21585    0.54146   1.00
C3       0.24212    0.21347    0.45830   1.00
C2       0.24585    0.25349    0.60405   1.00
C2       0.24368    0.24811    0.39378   1.00
C3       0.25151    0.28759    0.58189   1.00
C3       0.24483    0.28378    0.41409   1.00
C3       0.24040    0.21841    0.58304   1.00
C3       0.24236    0.21379    0.41664   1.00
H1       0.25646    0.31233    0.52763   1.00
H1       0.24503    0.31184    0.46694   1.00
C5       0.23574    0.17927    0.52165   1.00
C5       0.23968    0.17778    0.48002   1.00
H1       0.25590    0.31393    0.59549   1.00
H1       0.24553    0.30972    0.39909   1.00
H1       0.23668    0.19399    0.59948   1.00
H1       0.24121    0.18829    0.40152   1.00
C6       0.22635    0.14286    0.54485   1.00
C6       0.24174    0.13907    0.45881   1.00
H2       0.20417    0.14980    0.56655   1.00
H2       0.26474    0.14045    0.43690   1.00
H2       0.21142    0.12119    0.52714   1.00
H2       0.25230    0.11589    0.47772   1.00
C6       0.26321    0.12363    0.56394   1.00
C6       0.20176    0.12635    0.44058   1.00
H2       0.28146    0.14626    0.57708   1.00
H2       0.18816    0.15135    0.42617   1.00
C6       0.25624    0.09126    0.59541   1.00
C6       0.20219    0.09163    0.41089   1.00
H2       0.28088    0.11116    0.54051   1.00
H2       0.18214    0.11877    0.46454   1.00
C6       0.23673    0.10806    0.63265   1.00
C6       0.22439    0.10236    0.37292   1.00
C6       0.23092    0.05747    0.57926   1.00
C6       0.22059    0.05448    0.42893   1.00
C6       0.29637    0.07408    0.60755   1.00
C6       0.15943    0.08191    0.39946   1.00
H2       0.25358    0.13242    0.64442   1.00
H2       0.21250    0.12886    0.35980   1.00
H2       0.20732    0.11851    0.62670   1.00
H2       0.25529    0.10723    0.37846   1.00
H2       0.23447    0.08590    0.65541   1.00
H2       0.22221    0.07902    0.35137   1.00
H2       0.22856    0.03381    0.60045   1.00
H2       0.21822    0.02973    0.40902   1.00
H2       0.20142    0.06744    0.57275   1.00
H2       0.25149    0.05890    0.43506   1.00
H2       0.24359    0.04565    0.55255   1.00
H2       0.20602    0.04676    0.45615   1.00
H2       0.31529    0.09672    0.61958   1.00
H2       0.14518    0.10712    0.38617   1.00
H2       0.29305    0.05146    0.62975   1.00
H2       0.15822    0.05794    0.37851   1.00
H2       0.31128    0.06104    0.58261   1.00
H2       0.14242    0.07332    0.42498   1.00
C4       0.24535    0.74886    0.48025   1.00
C4       0.24415    0.74985    0.52191   1.00
C3       0.25144    0.71366    0.45897   1.00
C3       0.24486    0.71531    0.54504   1.00
C3       0.24036    0.78415    0.45854   1.00
C3       0.24212    0.78653    0.54170   1.00
C2       0.24585    0.74651    0.39595   1.00
C2       0.24368    0.75189    0.60622   1.00
C3       0.25151    0.71241    0.41811   1.00
C3       0.24483    0.71622    0.58591   1.00
C3       0.24040    0.78159    0.41696   1.00
C3       0.24236    0.78621    0.58336   1.00
H1       0.25646    0.68767    0.47237   1.00
H1       0.24503    0.68816    0.53306   1.00
C5       0.23574    0.82073    0.47835   1.00
C5       0.23968    0.82222    0.51998   1.00
H1       0.25590    0.68607    0.40451   1.00
H1       0.24553    0.69028    0.60091   1.00
H1       0.23668    0.80601    0.40052   1.00
H1       0.24121    0.81171    0.59848   1.00
C6       0.22635    0.85714    0.45515   1.00
C6       0.24174    0.86093    0.54119   1.00
H2       0.20417    0.85020    0.43345   1.00
H2       0.26474    0.85955    0.56310   1.00
H2       0.21142    0.87881    0.47286   1.00
H2       0.25230    0.88411    0.52228   1.00
C6       0.26321    0.87637    0.43606   1.00
C6       0.20176    0.87365    0.55942   1.00
H2       0.28146    0.85374    0.42292   1.00
H2       0.18816    0.84865    0.57383   1.00
C6       0.25624    0.90874    0.40459   1.00
C6       0.20219    0.90837    0.58911   1.00
H2       0.28088    0.88884    0.45949   1.00
H2       0.18214    0.88123    0.53546   1.00
C6       0.23673    0.89194    0.36735   1.00
C6       0.22439    0.89764    0.62708   1.00
C6       0.23092    0.94253    0.42074   1.00
C6       0.22059    0.94552    0.57107   1.00
C6       0.29637    0.92592    0.39245   1.00
C6       0.15943    0.91809    0.60054   1.00
H2       0.25358    0.86758    0.35558   1.00
H2       0.21250    0.87114    0.64020   1.00
H2       0.20732    0.88149    0.37330   1.00
H2       0.25529    0.89277    0.62154   1.00
H2       0.23447    0.91410    0.34459   1.00
H2       0.22221    0.92098    0.64863   1.00
H2       0.22856    0.96619    0.39955   1.00
H2       0.21822    0.97027    0.59098   1.00
H2       0.20142    0.93256    0.42725   1.00
H2       0.25149    0.94110    0.56494   1.00
H2       0.24359    0.95435    0.44745   1.00
H2       0.20602    0.95324    0.54385   1.00
H2       0.31529    0.90328    0.38042   1.00
H2       0.14518    0.89288    0.61383   1.00
H2       0.29305    0.94854    0.37025   1.00
H2       0.15822    0.94206    0.62149   1.00
H2       0.31128    0.93896    0.41739   1.00
H2       0.14242    0.92668    0.57502   1.00
C4       0.24886    0.98025    0.24535   1.00
C4       0.24985    1.02191    0.24415   1.00
C3       0.21366    0.95897    0.25144   1.00
C3       0.21531    1.04504    0.24486   1.00
C3       0.28415    0.95854    0.24036   1.00
C3       0.28653    1.04170    0.24212   1.00
C2       0.24651    0.89595    0.24585   1.00
C2       0.25189    1.10622    0.24368   1.00
C3       0.21241    0.91811    0.25151   1.00
C3       0.21622    1.08591    0.24483   1.00
C3       0.28159    0.91696    0.24040   1.00
C3       0.28621    1.08336    0.24236   1.00
H1       0.18767    0.97237    0.25646   1.00
H1       0.18816    1.03306    0.24503   1.00
C5       0.32073    0.97835    0.23574   1.00
C5       0.32222    1.01998    0.23968   1.00
H1       0.18607    0.90451    0.25590   1.00
H1       0.19028    1.10091    0.24553   1.00
H1       0.30601    0.90052    0.23668   1.00
H1       0.31171    1.09848    0.24121   1.00
C6       0.35714    0.95515    0.22635   1.00
C6       0.36093    1.04119    0.24174   1.00
H2       0.35020    0.93345    0.20417   1.00
H2       0.35955    1.06310    0.26474   1.00
H2       0.37881    0.97286    0.21142   1.00
H2       0.38411    1.02228    0.25230   1.00
C6       0.37637    0.93606    0.26321   1.00
C6       0.37365    1.05942    0.20176   1.00
H2       0.35374    0.92292    0.28146   1.00
H2       0.34865    1.07383    0.18816   1.00
C6       0.40874    0.90459    0.25624   1.00
C6       0.40837    1.08911    0.20219   1.00
H2       0.38884    0.95949    0.28088   1.00
H2       0.38123    1.03546    0.18214   1.00
C6       0.39194    0.86735    0.23673   1.00
C6       0.39764    1.12708    0.22439   1.00
C6       0.44253    0.92074    0.23092   1.00
C6       0.44552    1.07107    0.22059   1.00
C6       0.42592    0.89245    0.29637   1.00
C6       0.41809    1.10054    0.15943   1.00
H2       0.36758    0.85558    0.25358   1.00
H2       0.37114    1.14020    0.21250   1.00
H2       0.38149    0.87330    0.20732   1.00
H2       0.39277    1.12154    0.25529   1.00
H2       0.41410    0.84459    0.23447   1.00
H2       0.42098    1.14863    0.22221   1.00
H2       0.46619    0.89955    0.22856   1.00
H2       0.47027    1.09098    0.21822   1.00
H2       0.43256    0.92725    0.20142   1.00
H2       0.44110    1.06494    0.25149   1.00
H2       0.45435    0.94745    0.24359   1.00
H2       0.45324    1.04385    0.20602   1.00
H2       0.40328    0.88042    0.31529   1.00
H2       0.39288    1.11383    0.14518   1.00
H2       0.44854    0.87025    0.29305   1.00
H2       0.44206    1.12149    0.15822   1.00
H2       0.43896    0.91739    0.31128   1.00
H2       0.42668    1.07502    0.14242   1.00
C4       0.01975    0.74535    0.25114   1.00
C4       -0.02191   0.74415    0.25015   1.00
C3       0.04103    0.75144    0.28634   1.00
C3       -0.04504   0.74486    0.28469   1.00
C3       0.04146    0.74036    0.21585   1.00
C3       -0.04170   0.74212    0.21347   1.00
C2       0.10405    0.74585    0.25349   1.00
C2       -0.10622   0.74368    0.24811   1.00
C3       0.08189    0.75151    0.28759   1.00
C3       -0.08591   0.74483    0.28378   1.00
C3       0.08304    0.74040    0.21841   1.00
C3       -0.08336   0.74236    0.21379   1.00
H1       0.02763    0.75646    0.31233   1.00
H1       -0.03306   0.74503    0.31184   1.00
C5       0.02165    0.73574    0.17927   1.00
C5       -0.01998   0.73968    0.17778   1.00
H1       0.09549    0.75590    0.31393   1.00
H1       -0.10091   0.74553    0.30972   1.00
H1       0.09948    0.73668    0.19399   1.00
H1       -0.09848   0.74121    0.18829   1.00
C6       0.04485    0.72635    0.14286   1.00
C6       -0.04119   0.74174    0.13907   1.00
H2       0.06655    0.70417    0.14980   1.00
H2       -0.06310   0.76474    0.14045   1.00
H2       0.02714    0.71142    0.12119   1.00
H2       -0.02228   0.75230    0.11589   1.00
C6       0.06394    0.76321    0.12363   1.00
C6       -0.05942   0.70176    0.12635   1.00
H2       0.07708    0.78146    0.14626   1.00
H2       -0.07383   0.68816    0.15135   1.00
C6       0.09541    0.75624    0.09126   1.00
C6       -0.08911   0.70219    0.09163   1.00
H2       0.04051    0.78088    0.11116   1.00
H2       -0.03546   0.68214    0.11877   1.00
C6       0.13265    0.73673    0.10806   1.00
C6       -0.12708   0.72439    0.10236   1.00
C6       0.07926    0.73092    0.05747   1.00
C6       -0.07107   0.72059    0.05448   1.00
C6       0.10755    0.79637    0.07408   1.00
C6       -0.10054   0.65943    0.08191   1.00
H2       0.14442    0.75358    0.13242   1.00
H2       -0.14020   0.71250    0.12886   1.00
H2       0.12670    0.70732    0.11851   1.00
H2       -0.12154   0.75529    0.10723   1.00
H2       0.15541    0.73447    0.08590   1.00
H2       -0.14863   0.72221    0.07902   1.00
H2       0.10045    0.72856    0.03381   1.00
H2       -0.09098   0.71822    0.02973   1.00
H2       0.07275    0.70142    0.06744   1.00
H2       -0.06494   0.75149    0.05890   1.00
H2       0.05255    0.74359    0.04565   1.00
H2       -0.04385   0.70602    0.04676   1.00
H2       0.11958    0.81529    0.09672   1.00
H2       -0.11383   0.64518    0.10712   1.00
H2       0.12975    0.79305    0.05146   1.00
H2       -0.12149   0.65822    0.05794   1.00
H2       0.08261    0.81128    0.06104   1.00
H2       -0.07502   0.64242    0.07332   1.00
C4       0.48025    0.74535    0.24886   1.00
C4       0.52191    0.74415    0.24985   1.00
C3       0.45897    0.75144    0.21366   1.00
C3       0.54504    0.74486    0.21531   1.00
C3       0.45854    0.74036    0.28415   1.00
C3       0.54170    0.74212    0.28653   1.00
C2       0.39595    0.74585    0.24651   1.00
C2       0.60622    0.74368    0.25189   1.00
C3       0.41811    0.75151    0.21241   1.00
C3       0.58591    0.74483    0.21622   1.00
C3       0.41696    0.74040    0.28159   1.00
C3       0.58336    0.74236    0.28621   1.00
H1       0.47237    0.75646    0.18767   1.00
H1       0.53306    0.74503    0.18816   1.00
C5       0.47835    0.73574    0.32073   1.00
C5       0.51998    0.73968    0.32222   1.00
H1       0.40451    0.75590    0.18607   1.00
H1       0.60091    0.74553    0.19028   1.00
H1       0.40052    0.73668    0.30601   1.00
H1       0.59848    0.74121    0.31171   1.00
C6       0.45515    0.72635    0.35714   1.00
C6       0.54119    0.74174    0.36093   1.00
H2       0.43345    0.70417    0.35020   1.00
H2       0.56310    0.76474    0.35955   1.00
H2       0.47286    0.71142    0.37881   1.00
H2       0.52228    0.75230    0.38411   1.00
C6       0.43606    0.76321    0.37637   1.00
C6       0.55942    0.70176    0.37365   1.00
H2       0.42292    0.78146    0.35374   1.00
H2       0.57383    0.68816    0.34865   1.00
C6       0.40459    0.75624    0.40874   1.00
C6       0.58911    0.70219    0.40837   1.00
H2       0.45949    0.78088    0.38884   1.00
H2       0.53546    0.68214    0.38123   1.00
C6       0.36735    0.73673    0.39194   1.00
C6       0.62708    0.72439    0.39764   1.00
C6       0.42074    0.73092    0.44253   1.00
C6       0.57107    0.72059    0.44552   1.00
C6       0.39245    0.79637    0.42592   1.00
C6       0.60054    0.65943    0.41809   1.00
H2       0.35558    0.75358    0.36758   1.00
H2       0.64020    0.71250    0.37114   1.00
H2       0.37330    0.70732    0.38149   1.00
H2       0.62154    0.75529    0.39277   1.00
H2       0.34459    0.73447    0.41410   1.00
H2       0.64863    0.72221    0.42098   1.00
H2       0.39955    0.72856    0.46619   1.00
H2       0.59098    0.71822    0.47027   1.00
H2       0.42725    0.70142    0.43256   1.00
H2       0.56494    0.75149    0.44110   1.00
H2       0.44745    0.74359    0.45435   1.00
H2       0.54385    0.70602    0.45324   1.00
H2       0.38042    0.81529    0.40328   1.00
H2       0.61383    0.64518    0.39288   1.00
H2       0.37025    0.79305    0.44854   1.00
H2       0.62149    0.65822    0.44206   1.00
H2       0.41739    0.81128    0.43896   1.00
H2       0.57502    0.64242    0.42668   1.00
C4       0.25114    0.51975    0.24535   1.00
C4       0.25015    0.47809    0.24415   1.00
C3       0.28634    0.54103    0.25144   1.00
C3       0.28469    0.45496    0.24486   1.00
C3       0.21585    0.54146    0.24036   1.00
C3       0.21347    0.45830    0.24212   1.00
C2       0.25349    0.60405    0.24585   1.00
C2       0.24811    0.39378    0.24368   1.00
C3       0.28759    0.58189    0.25151   1.00
C3       0.28378    0.41409    0.24483   1.00
C3       0.21841    0.58304    0.24040   1.00
C3       0.21379    0.41664    0.24236   1.00
H1       0.31233    0.52763    0.25646   1.00
H1       0.31184    0.46694    0.24503   1.00
C5       0.17927    0.52165    0.23574   1.00
C5       0.17778    0.48002    0.23968   1.00
H1       0.31393    0.59549    0.25590   1.00
H1       0.30972    0.39909    0.24553   1.00
H1       0.19399    0.59948    0.23668   1.00
H1       0.18829    0.40152    0.24121   1.00
C6       0.14286    0.54485    0.22635   1.00
C6       0.13907    0.45881    0.24174   1.00
H2       0.14980    0.56655    0.20417   1.00
H2       0.14045    0.43690    0.26474   1.00
H2       0.12119    0.52714    0.21142   1.00
H2       0.11589    0.47772    0.25230   1.00
C6       0.12363    0.56394    0.26321   1.00
C6       0.12635    0.44058    0.20176   1.00
H2       0.14626    0.57708    0.28146   1.00
H2       0.15135    0.42617    0.18816   1.00
C6       0.09126    0.59541    0.25624   1.00
C6       0.09163    0.41089    0.20219   1.00
H2       0.11116    0.54051    0.28088   1.00
H2       0.11877    0.46454    0.18214   1.00
C6       0.10806    0.63265    0.23673   1.00
C6       0.10236    0.37292    0.22439   1.00
C6       0.05747    0.57926    0.23092   1.00
C6       0.05448    0.42893    0.22059   1.00
C6       0.07408    0.60755    0.29637   1.00
C6       0.08191    0.39946    0.15943   1.00
H2       0.13242    0.64442    0.25358   1.00
H2       0.12886    0.35980    0.21250   1.00
H2       0.11851    0.62670    0.20732   1.00
H2       0.10723    0.37846    0.25529   1.00
H2       0.08590    0.65541    0.23447   1.00
H2       0.07902    0.35137    0.22221   1.00
H2       0.03381    0.60045    0.22856   1.00
H2       0.02973    0.40902    0.21822   1.00
H2       0.06744    0.57275    0.20142   1.00
H2       0.05890    0.43506    0.25149   1.00
H2       0.04565    0.55255    0.24359   1.00
H2       0.04676    0.45615    0.20602   1.00
H2       0.09672    0.61958    0.31529   1.00
H2       0.10712    0.38617    0.14518   1.00
H2       0.05146    0.62975    0.29305   1.00
H2       0.05794    0.37851    0.15822   1.00
H2       0.06104    0.58261    0.31128   1.00
H2       0.07332    0.42498    0.14242   1.00
C4       0.24535    0.75114    0.01975   1.00
C4       0.24415    0.75015    -0.02191   1.00
C3       0.25144    0.78634    0.04103   1.00
C3       0.24486    0.78469    -0.04504   1.00
C3       0.24036    0.71585    0.04146   1.00
C3       0.24212    0.71347    -0.04170   1.00
C2       0.24585    0.75349    0.10405   1.00
C2       0.24368    0.74811    -0.10622   1.00
C3       0.25151    0.78759    0.08189   1.00
C3       0.24483    0.78378    -0.08591   1.00
C3       0.24040    0.71841    0.08304   1.00
C3       0.24236    0.71379    -0.08336   1.00
H1       0.25646    0.81233    0.02763   1.00
H1       0.24503    0.81184    -0.03306   1.00
C5       0.23574    0.67927    0.02165   1.00
C5       0.23968    0.67778    -0.01998   1.00
H1       0.25590    0.81393    0.09549   1.00
H1       0.24553    0.80972    -0.10091   1.00
H1       0.23668    0.69399    0.09948   1.00
H1       0.24121    0.68829    -0.09848   1.00
C6       0.22635    0.64286    0.04485   1.00
C6       0.24174    0.63907    -0.04119   1.00
H2       0.20417    0.64980    0.06655   1.00
H2       0.26474    0.64045    -0.06310   1.00
H2       0.21142    0.62119    0.02714   1.00
H2       0.25230    0.61589    -0.02228   1.00
C6       0.26321    0.62363    0.06394   1.00
C6       0.20176    0.62635    -0.05942   1.00
H2       0.28146    0.64626    0.07708   1.00
H2       0.18816    0.65135    -0.07383   1.00
C6       0.25624    0.59126    0.09541   1.00
C6       0.20219    0.59163    -0.08911   1.00
H2       0.28088    0.61116    0.04051   1.00
H2       0.18214    0.61877    -0.03546   1.00
C6       0.23673    0.60806    0.13265   1.00
C6       0.22439    0.60236    -0.12708   1.00
C6       0.23092    0.55747    0.07926   1.00
C6       0.22059    0.55448    -0.07107   1.00
C6       0.29637    0.57408    0.10755   1.00
C6       0.15943    0.58191    -0.10054   1.00
H2       0.25358    0.63242    0.14442   1.00
H2       0.21250    0.62886    -0.14020   1.00
H2       0.20732    0.61851    0.12670   1.00
H2       0.25529    0.60723    -0.12154   1.00
H2       0.23447    0.58590    0.15541   1.00
H2       0.22221    0.57902    -0.14863   1.00
H2       0.22856    0.53381    0.10045   1.00
H2       0.21822    0.52973    -0.09098   1.00
H2       0.20142    0.56744    0.07275   1.00
H2       0.25149    0.55890    -0.06494   1.00
H2       0.24359    0.54565    0.05255   1.00
H2       0.20602    0.54676    -0.04385   1.00
H2       0.31529    0.59672    0.11958   1.00
H2       0.14518    0.60712    -0.11383   1.00
H2       0.29305    0.55146    0.12975   1.00
H2       0.15822    0.55794    -0.12149   1.00
H2       0.31128    0.56104    0.08261   1.00
H2       0.14242    0.57332    -0.07502   1.00
C4       0.74535    0.24886    0.48025   1.00
C4       0.74415    0.24985    0.52191   1.00
C3       0.75144    0.21366    0.45897   1.00
C3       0.74486    0.21531    0.54504   1.00
C3       0.74036    0.28415    0.45854   1.00
C3       0.74212    0.28653    0.54170   1.00
C2       0.74585    0.24651    0.39595   1.00
C2       0.74368    0.25189    0.60622   1.00
C3       0.75151    0.21241    0.41811   1.00
C3       0.74483    0.21622    0.58591   1.00
C3       0.74040    0.28159    0.41696   1.00
C3       0.74236    0.28621    0.58336   1.00
H1       0.75646    0.18767    0.47237   1.00
H1       0.74503    0.18816    0.53306   1.00
C5       0.73574    0.32073    0.47835   1.00
C5       0.73968    0.32222    0.51998   1.00
H1       0.75590    0.18607    0.40451   1.00
H1       0.74553    0.19028    0.60091   1.00
H1       0.73668    0.30601    0.40052   1.00
H1       0.74121    0.31171    0.59848   1.00
C6       0.72635    0.35714    0.45515   1.00
C6       0.74174    0.36093    0.54119   1.00
H2       0.70417    0.35020    0.43345   1.00
H2       0.76474    0.35955    0.56310   1.00
H2       0.71142    0.37881    0.47286   1.00
H2       0.75230    0.38411    0.52228   1.00
C6       0.76321    0.37637    0.43606   1.00
C6       0.70176    0.37365    0.55942   1.00
H2       0.78146    0.35374    0.42292   1.00
H2       0.68816    0.34865    0.57383   1.00
C6       0.75624    0.40874    0.40459   1.00
C6       0.70219    0.40837    0.58911   1.00
H2       0.78088    0.38884    0.45949   1.00
H2       0.68214    0.38123    0.53546   1.00
C6       0.73673    0.39194    0.36735   1.00
C6       0.72439    0.39764    0.62708   1.00
C6       0.73092    0.44253    0.42074   1.00
C6       0.72059    0.44552    0.57107   1.00
C6       0.79637    0.42592    0.39245   1.00
C6       0.65943    0.41809    0.60054   1.00
H2       0.75358    0.36758    0.35558   1.00
H2       0.71250    0.37114    0.64020   1.00
H2       0.70732    0.38149    0.37330   1.00
H2       0.75529    0.39277    0.62154   1.00
H2       0.73447    0.41410    0.34459   1.00
H2       0.72221    0.42098    0.64863   1.00
H2       0.72856    0.46619    0.39955   1.00
H2       0.71822    0.47027    0.59098   1.00
H2       0.70142    0.43256    0.42725   1.00
H2       0.75149    0.44110    0.56494   1.00
H2       0.74359    0.45435    0.44745   1.00
H2       0.70602    0.45324    0.54385   1.00
H2       0.81529    0.40328    0.38042   1.00
H2       0.64518    0.39288    0.61383   1.00
H2       0.79305    0.44854    0.37025   1.00
H2       0.65822    0.44206    0.62149   1.00
H2       0.81128    0.43896    0.41739   1.00
H2       0.64242    0.42668    0.57502   1.00
C4       0.74886    0.48025    0.24535   1.00
C4       0.74985    0.52191    0.24415   1.00
C3       0.71366    0.45897    0.25144   1.00
C3       0.71531    0.54504    0.24486   1.00
C3       0.78415    0.45854    0.24036   1.00
C3       0.78653    0.54170    0.24212   1.00
C2       0.74651    0.39595    0.24585   1.00
C2       0.75189    0.60622    0.24368   1.00
C3       0.71241    0.41811    0.25151   1.00
C3       0.71622    0.58591    0.24483   1.00
C3       0.78159    0.41696    0.24040   1.00
C3       0.78621    0.58336    0.24236   1.00
H1       0.68767    0.47237    0.25646   1.00
H1       0.68816    0.53306    0.24503   1.00
C5       0.82073    0.47835    0.23574   1.00
C5       0.82222    0.51998    0.23968   1.00
H1       0.68607    0.40451    0.25590   1.00
H1       0.69028    0.60091    0.24553   1.00
H1       0.80601    0.40052    0.23668   1.00
H1       0.81171    0.59848    0.24121   1.00
C6       0.85714    0.45515    0.22635   1.00
C6       0.86093    0.54119    0.24174   1.00
H2       0.85020    0.43345    0.20417   1.00
H2       0.85955    0.56310    0.26474   1.00
H2       0.87881    0.47286    0.21142   1.00
H2       0.88411    0.52228    0.25230   1.00
C6       0.87637    0.43606    0.26321   1.00
C6       0.87365    0.55942    0.20176   1.00
H2       0.85374    0.42292    0.28146   1.00
H2       0.84865    0.57383    0.18816   1.00
C6       0.90874    0.40459    0.25624   1.00
C6       0.90837    0.58911    0.20219   1.00
H2       0.88884    0.45949    0.28088   1.00
H2       0.88123    0.53546    0.18214   1.00
C6       0.89194    0.36735    0.23673   1.00
C6       0.89764    0.62708    0.22439   1.00
C6       0.94253    0.42074    0.23092   1.00
C6       0.94552    0.57107    0.22059   1.00
C6       0.92592    0.39245    0.29637   1.00
C6       0.91809    0.60054    0.15943   1.00
H2       0.86758    0.35558    0.25358   1.00
H2       0.87114    0.64020    0.21250   1.00
H2       0.88149    0.37330    0.20732   1.00
H2       0.89277    0.62154    0.25529   1.00
H2       0.91410    0.34459    0.23447   1.00
H2       0.92098    0.64863    0.22221   1.00
H2       0.96619    0.39955    0.22856   1.00
H2       0.97027    0.59098    0.21822   1.00
H2       0.93256    0.42725    0.20142   1.00
H2       0.94110    0.56494    0.25149   1.00
H2       0.95435    0.44745    0.24359   1.00
H2       0.95324    0.54385    0.20602   1.00
H2       0.90328    0.38042    0.31529   1.00
H2       0.89288    0.61383    0.14518   1.00
H2       0.94854    0.37025    0.29305   1.00
H2       0.94206    0.62149    0.15822   1.00
H2       0.93896    0.41739    0.31128   1.00
H2       0.92668    0.57502    0.14242   1.00
C4       0.51975    0.24535    0.25114   1.00
C4       0.47809    0.24415    0.25015   1.00
C3       0.54103    0.25144    0.28634   1.00
C3       0.45496    0.24486    0.28469   1.00
C3       0.54146    0.24036    0.21585   1.00
C3       0.45830    0.24212    0.21347   1.00
C2       0.60405    0.24585    0.25349   1.00
C2       0.39378    0.24368    0.24811   1.00
C3       0.58189    0.25151    0.28759   1.00
C3       0.41409    0.24483    0.28378   1.00
C3       0.58304    0.24040    0.21841   1.00
C3       0.41664    0.24236    0.21379   1.00
H1       0.52763    0.25646    0.31233   1.00
H1       0.46694    0.24503    0.31184   1.00
C5       0.52165    0.23574    0.17927   1.00
C5       0.48002    0.23968    0.17778   1.00
H1       0.59549    0.25590    0.31393   1.00
H1       0.39909    0.24553    0.30972   1.00
H1       0.59948    0.23668    0.19399   1.00
H1       0.40152    0.24121    0.18829   1.00
C6       0.54485    0.22635    0.14286   1.00
C6       0.45881    0.24174    0.13907   1.00
H2       0.56655    0.20417    0.14980   1.00
H2       0.43690    0.26474    0.14045   1.00
H2       0.52714    0.21142    0.12119   1.00
H2       0.47772    0.25230    0.11589   1.00
C6       0.56394    0.26321    0.12363   1.00
C6       0.44058    0.20176    0.12635   1.00
H2       0.57708    0.28146    0.14626   1.00
H2       0.42617    0.18816    0.15135   1.00
C6       0.59541    0.25624    0.09126   1.00
C6       0.41089    0.20219    0.09163   1.00
H2       0.54051    0.28088    0.11116   1.00
H2       0.46454    0.18214    0.11877   1.00
C6       0.63265    0.23673    0.10806   1.00
C6       0.37292    0.22439    0.10236   1.00
C6       0.57926    0.23092    0.05747   1.00
C6       0.42893    0.22059    0.05448   1.00
C6       0.60755    0.29637    0.07408   1.00
C6       0.39946    0.15943    0.08191   1.00
H2       0.64442    0.25358    0.13242   1.00
H2       0.35980    0.21250    0.12886   1.00
H2       0.62670    0.20732    0.11851   1.00
H2       0.37846    0.25529    0.10723   1.00
H2       0.65541    0.23447    0.08590   1.00
H2       0.35137    0.22221    0.07902   1.00
H2       0.60045    0.22856    0.03381   1.00
H2       0.40902    0.21822    0.02973   1.00
H2       0.57275    0.20142    0.06744   1.00
H2       0.43506    0.25149    0.05890   1.00
H2       0.55255    0.24359    0.04565   1.00
H2       0.45615    0.20602    0.04676   1.00
H2       0.61958    0.31529    0.09672   1.00
H2       0.38617    0.14518    0.10712   1.00
H2       0.62975    0.29305    0.05146   1.00
H2       0.37851    0.15822    0.05794   1.00
H2       0.58261    0.31128    0.06104   1.00
H2       0.42498    0.14242    0.07332   1.00
C4       0.98025    0.24535    0.24886   1.00
C4       1.02191    0.24415    0.24985   1.00
C3       0.95897    0.25144    0.21366   1.00
C3       1.04504    0.24486    0.21531   1.00
C3       0.95854    0.24036    0.28415   1.00
C3       1.04170    0.24212    0.28653   1.00
C2       0.89595    0.24585    0.24651   1.00
C2       1.10622    0.24368    0.25189   1.00
C3       0.91811    0.25151    0.21241   1.00
C3       1.08591    0.24483    0.21622   1.00
C3       0.91696    0.24040    0.28159   1.00
C3       1.08336    0.24236    0.28621   1.00
H1       0.97237    0.25646    0.18767   1.00
H1       1.03306    0.24503    0.18816   1.00
C5       0.97835    0.23574    0.32073   1.00
C5       1.01998    0.23968    0.32222   1.00
H1       0.90451    0.25590    0.18607   1.00
H1       1.10091    0.24553    0.19028   1.00
H1       0.90052    0.23668    0.30601   1.00
H1       1.09848    0.24121    0.31171   1.00
C6       0.95515    0.22635    0.35714   1.00
C6       1.04119    0.24174    0.36093   1.00
H2       0.93345    0.20417    0.35020   1.00
H2       1.06310    0.26474    0.35955   1.00
H2       0.97286    0.21142    0.37881   1.00
H2       1.02228    0.25230    0.38411   1.00
C6       0.93606    0.26321    0.37637   1.00
C6       1.05942    0.20176    0.37365   1.00
H2       0.92292    0.28146    0.35374   1.00
H2       1.07383    0.18816    0.34865   1.00
C6       0.90459    0.25624    0.40874   1.00
C6       1.08911    0.20219    0.40837   1.00
H2       0.95949    0.28088    0.38884   1.00
H2       1.03546    0.18214    0.38123   1.00
C6       0.86735    0.23673    0.39194   1.00
C6       1.12708    0.22439    0.39764   1.00
C6       0.92074    0.23092    0.44253   1.00
C6       1.07107    0.22059    0.44552   1.00
C6       0.89245    0.29637    0.42592   1.00
C6       1.10054    0.15943    0.41809   1.00
H2       0.85558    0.25358    0.36758   1.00
H2       1.14020    0.21250    0.37114   1.00
H2       0.87330    0.20732    0.38149   1.00
H2       1.12154    0.25529    0.39277   1.00
H2       0.84459    0.23447    0.41410   1.00
H2       1.14863    0.22221    0.42098   1.00
H2       0.89955    0.22856    0.46619   1.00
H2       1.09098    0.21822    0.47027   1.00
H2       0.92725    0.20142    0.43256   1.00
H2       1.06494    0.25149    0.44110   1.00
H2       0.94745    0.24359    0.45435   1.00
H2       1.04385    0.20602    0.45324   1.00
H2       0.88042    0.31529    0.40328   1.00
H2       1.11383    0.14518    0.39288   1.00
H2       0.87025    0.29305    0.44854   1.00
H2       1.12149    0.15822    0.44206   1.00
H2       0.91739    0.31128    0.43896   1.00
H2       1.07502    0.14242    0.42668   1.00
C4       0.75114    0.01975    0.24535   1.00
C4       0.75015    -0.02191   0.24415   1.00
C3       0.78634    0.04103    0.25144   1.00
C3       0.78469    -0.04504   0.24486   1.00
C3       0.71585    0.04146    0.24036   1.00
C3       0.71347    -0.04170   0.24212   1.00
C2       0.75349    0.10405    0.24585   1.00
C2       0.74811    -0.10622   0.24368   1.00
C3       0.78759    0.08189    0.25151   1.00
C3       0.78378    -0.08591   0.24483   1.00
C3       0.71841    0.08304    0.24040   1.00
C3       0.71379    -0.08336   0.24236   1.00
H1       0.81233    0.02763    0.25646   1.00
H1       0.81184    -0.03306   0.24503   1.00
C5       0.67927    0.02165    0.23574   1.00
C5       0.67778    -0.01998   0.23968   1.00
H1       0.81393    0.09549    0.25590   1.00
H1       0.80972    -0.10091   0.24553   1.00
H1       0.69399    0.09948    0.23668   1.00
H1       0.68829    -0.09848   0.24121   1.00
C6       0.64286    0.04485    0.22635   1.00
C6       0.63907    -0.04119   0.24174   1.00
H2       0.64980    0.06655    0.20417   1.00
H2       0.64045    -0.06310   0.26474   1.00
H2       0.62119    0.02714    0.21142   1.00
H2       0.61589    -0.02228   0.25230   1.00
C6       0.62363    0.06394    0.26321   1.00
C6       0.62635    -0.05942   0.20176   1.00
H2       0.64626    0.07708    0.28146   1.00
H2       0.65135    -0.07383   0.18816   1.00
C6       0.59126    0.09541    0.25624   1.00
C6       0.59163    -0.08911   0.20219   1.00
H2       0.61116    0.04051    0.28088   1.00
H2       0.61877    -0.03546   0.18214   1.00
C6       0.60806    0.13265    0.23673   1.00
C6       0.60236    -0.12708   0.22439   1.00
C6       0.55747    0.07926    0.23092   1.00
C6       0.55448    -0.07107   0.22059   1.00
C6       0.57408    0.10755    0.29637   1.00
C6       0.58191    -0.10054   0.15943   1.00
H2       0.63242    0.14442    0.25358   1.00
H2       0.62886    -0.14020   0.21250   1.00
H2       0.61851    0.12670    0.20732   1.00
H2       0.60723    -0.12154   0.25529   1.00
H2       0.58590    0.15541    0.23447   1.00
H2       0.57902    -0.14863   0.22221   1.00
H2       0.53381    0.10045    0.22856   1.00
H2       0.52973    -0.09098   0.21822   1.00
H2       0.56744    0.07275    0.20142   1.00
H2       0.55890    -0.06494   0.25149   1.00
H2       0.54565    0.05255    0.24359   1.00
H2       0.54676    -0.04385   0.20602   1.00
H2       0.59672    0.11958    0.31529   1.00
H2       0.60712    -0.11383   0.14518   1.00
H2       0.55146    0.12975    0.29305   1.00
H2       0.55794    -0.12149   0.15822   1.00
H2       0.56104    0.08261    0.31128   1.00
H2       0.57332    -0.07502   0.14242   1.00
C4       0.74535    0.25114    0.01975   1.00
C4       0.74415    0.25015    -0.02191   1.00
C3       0.75144    0.28634    0.04103   1.00
C3       0.74486    0.28469    -0.04504   1.00
C3       0.74036    0.21585    0.04146   1.00
C3       0.74212    0.21347    -0.04170   1.00
C2       0.74585    0.25349    0.10405   1.00
C2       0.74368    0.24811    -0.10622   1.00
C3       0.75151    0.28759    0.08189   1.00
C3       0.74483    0.28378    -0.08591   1.00
C3       0.74040    0.21841    0.08304   1.00
C3       0.74236    0.21379    -0.08336   1.00
H1       0.75646    0.31233    0.02763   1.00
H1       0.74503    0.31184    -0.03306   1.00
C5       0.73574    0.17927    0.02165   1.00
C5       0.73968    0.17778    -0.01998   1.00
H1       0.75590    0.31393    0.09549   1.00
H1       0.74553    0.30972    -0.10091   1.00
H1       0.73668    0.19399    0.09948   1.00
H1       0.74121    0.18829    -0.09848   1.00
C6       0.72635    0.14286    0.04485   1.00
C6       0.74174    0.13907    -0.04119   1.00
H2       0.70417    0.14980    0.06655   1.00
H2       0.76474    0.14045    -0.06310   1.00
H2       0.71142    0.12119    0.02714   1.00
H2       0.75230    0.11589    -0.02228   1.00
C6       0.76321    0.12363    0.06394   1.00
C6       0.70176    0.12635    -0.05942   1.00
H2       0.78146    0.14626    0.07708   1.00
H2       0.68816    0.15135    -0.07383   1.00
C6       0.75624    0.09126    0.09541   1.00
C6       0.70219    0.09163    -0.08911   1.00
H2       0.78088    0.11116    0.04051   1.00
H2       0.68214    0.11877    -0.03546   1.00
C6       0.73673    0.10806    0.13265   1.00
C6       0.72439    0.10236    -0.12708   1.00
C6       0.73092    0.05747    0.07926   1.00
C6       0.72059    0.05448    -0.07107   1.00
C6       0.79637    0.07408    0.10755   1.00
C6       0.65943    0.08191    -0.10054   1.00
H2       0.75358    0.13242    0.14442   1.00
H2       0.71250    0.12886    -0.14020   1.00
H2       0.70732    0.11851    0.12670   1.00
H2       0.75529    0.10723    -0.12154   1.00
H2       0.73447    0.08590    0.15541   1.00
H2       0.72221    0.07902    -0.14863   1.00
H2       0.72856    0.03381    0.10045   1.00
H2       0.71822    0.02973    -0.09098   1.00
H2       0.70142    0.06744    0.07275   1.00
H2       0.75149    0.05890    -0.06494   1.00
H2       0.74359    0.04565    0.05255   1.00
H2       0.70602    0.04676    -0.04385   1.00
H2       0.81529    0.09672    0.11958   1.00
H2       0.64518    0.10712    -0.11383   1.00
H2       0.79305    0.05146    0.12975   1.00
H2       0.65822    0.05794    -0.12149   1.00
H2       0.81128    0.06104    0.08261   1.00
H2       0.64242    0.07332    -0.07502   1.00
C4       0.91035    0.91386    1.14525   1.00
C4       0.90915    0.91485    1.18691   1.00
C3       0.91644    0.87866    1.12397   1.00
C3       0.90986    0.88031    1.21004   1.00
C3       0.90536    0.94915    1.12354   1.00
C3       0.90712    0.95153    1.20670   1.00
C2       0.91085    0.91151    1.06095   1.00
C2       0.90868    0.91689    1.27122   1.00
C3       0.91651    0.87741    1.08311   1.00
C3       0.90983    0.88122    1.25091   1.00
C3       0.90540    0.94659    1.08196   1.00
C3       0.90736    0.95121    1.24836   1.00
H1       0.92146    0.85267    1.13737   1.00
H1       0.91003    0.85316    1.19806   1.00
C5       0.90074    0.98573    1.14335   1.00
C5       0.90468    0.98722    1.18498   1.00
H1       0.92090    0.85107    1.06951   1.00
H1       0.91053    0.85528    1.26591   1.00
H1       0.90168    0.97101    1.06552   1.00
H1       0.90621    0.97671    1.26348   1.00
C6       0.89135    1.02214    1.12015   1.00
C6       0.90674    1.02593    1.20619   1.00
H2       0.86917    1.01520    1.09845   1.00
H2       0.92974    1.02455    1.22810   1.00
H2       0.87642    1.04381    1.13786   1.00
H2       0.91730    1.04911    1.18728   1.00
C6       0.92821    1.04137    1.10106   1.00
C6       0.86676    1.03865    1.22442   1.00
H2       0.94646    1.01874    1.08792   1.00
H2       0.85316    1.01365    1.23883   1.00
C6       0.92124    1.07374    1.06959   1.00
C6       0.86719    1.07337    1.25411   1.00
H2       0.94588    1.05384    1.12449   1.00
H2       0.84714    1.04623    1.20046   1.00
C6       0.90173    1.05694    1.03235   1.00
C6       0.88939    1.06264    1.29208   1.00
C6       0.89592    1.10753    1.08574   1.00
C6       0.88559    1.11052    1.23607   1.00
C6       0.96137    1.09092    1.05745   1.00
C6       0.82443    1.08309    1.26554   1.00
H2       0.91858    1.03258    1.02058   1.00
H2       0.87750    1.03614    1.30520   1.00
H2       0.87232    1.04649    1.03830   1.00
H2       0.92029    1.05777    1.28654   1.00
H2       0.89947    1.07910    1.00959   1.00
H2       0.88721    1.08598    1.31363   1.00
H2       0.89356    1.13119    1.06455   1.00
H2       0.88322    1.13527    1.25598   1.00
H2       0.86642    1.09756    1.09225   1.00
H2       0.91649    1.10610    1.22994   1.00
H2       0.90859    1.11935    1.11245   1.00
H2       0.87102    1.11824    1.20885   1.00
H2       0.98029    1.06828    1.04542   1.00
H2       0.81018    1.05788    1.27883   1.00
H2       0.95805    1.11354    1.03525   1.00
H2       0.82322    1.10706    1.28649   1.00
H2       0.97628    1.10396    1.08239   1.00
H2       0.80742    1.09168    1.24002   1.00
C4       0.91386    1.14525    0.91035   1.00
C4       0.91485    1.18691    0.90915   1.00
C3       0.87866    1.12397    0.91644   1.00
C3       0.88031    1.21004    0.90986   1.00
C3       0.94915    1.12354    0.90536   1.00
C3       0.95153    1.20670    0.90712   1.00
C2       0.91151    1.06095    0.91085   1.00
C2       0.91689    1.27122    0.90868   1.00
C3       0.87741    1.08311    0.91651   1.00
C3       0.88122    1.25091    0.90983   1.00
C3       0.94659    1.08196    0.90540   1.00
C3       0.95121    1.24836    0.90736   1.00
H1       0.85267    1.13737    0.92146   1.00
H1       0.85316    1.19806    0.91003   1.00
C5       0.98573    1.14335    0.90074   1.00
C5       0.98722    1.18498    0.90468   1.00
H1       0.85107    1.06951    0.92090   1.00
H1       0.85528    1.26591    0.91053   1.00
H1       0.97101    1.06552    0.90168   1.00
H1       0.97671    1.26348    0.90621   1.00
C6       1.02214    1.12015    0.89135   1.00
C6       1.02593    1.20619    0.90674   1.00
H2       1.01520    1.09845    0.86917   1.00
H2       1.02455    1.22810    0.92974   1.00
H2       1.04381    1.13786    0.87642   1.00
H2       1.04911    1.18728    0.91730   1.00
C6       1.04137    1.10106    0.92821   1.00
C6       1.03865    1.22442    0.86676   1.00
H2       1.01874    1.08792    0.94646   1.00
H2       1.01365    1.23883    0.85316   1.00
C6       1.07374    1.06959    0.92124   1.00
C6       1.07337    1.25411    0.86719   1.00
H2       1.05384    1.12449    0.94588   1.00
H2       1.04623    1.20046    0.84714   1.00
C6       1.05694    1.03235    0.90173   1.00
C6       1.06264    1.29208    0.88939   1.00
C6       1.10753    1.08574    0.89592   1.00
C6       1.11052    1.23607    0.88559   1.00
C6       1.09092    1.05745    0.96137   1.00
C6       1.08309    1.26554    0.82443   1.00
H2       1.03258    1.02058    0.91858   1.00
H2       1.03614    1.30520    0.87750   1.00
H2       1.04649    1.03830    0.87232   1.00
H2       1.05777    1.28654    0.92029   1.00
H2       1.07910    1.00959    0.89947   1.00
H2       1.08598    1.31363    0.88721   1.00
H2       1.13119    1.06455    0.89356   1.00
H2       1.13527    1.25598    0.88322   1.00
H2       1.09756    1.09225    0.86642   1.00
H2       1.10610    1.22994    0.91649   1.00
H2       1.11935    1.11245    0.90859   1.00
H2       1.11824    1.20885    0.87102   1.00
H2       1.06828    1.04542    0.98029   1.00
H2       1.05788    1.27883    0.81018   1.00
H2       1.11354    1.03525    0.95805   1.00
H2       1.10706    1.28649    0.82322   1.00
H2       1.10396    1.08239    0.97628   1.00
H2       1.09168    1.24002    0.80742   1.00
C4       0.68475    0.91035    0.91614   1.00
C4       0.64309    0.90915    0.91515   1.00
C3       0.70603    0.91644    0.95134   1.00
C3       0.61996    0.90986    0.94969   1.00
C3       0.70646    0.90536    0.88085   1.00
C3       0.62330    0.90712    0.87847   1.00
C2       0.76905    0.91085    0.91849   1.00
C2       0.55878    0.90868    0.91311   1.00
C3       0.74689    0.91651    0.95259   1.00
C3       0.57909    0.90983    0.94878   1.00
C3       0.74804    0.90540    0.88341   1.00
C3       0.58164    0.90736    0.87879   1.00
H1       0.69263    0.92146    0.97733   1.00
H1       0.63194    0.91003    0.97684   1.00
C5       0.68665    0.90074    0.84427   1.00
C5       0.64502    0.90468    0.84278   1.00
H1       0.76049    0.92090    0.97893   1.00
H1       0.56409    0.91053    0.97472   1.00
H1       0.76448    0.90168    0.85899   1.00
H1       0.56652    0.90621    0.85329   1.00
C6       0.70985    0.89135    0.80786   1.00
C6       0.62381    0.90674    0.80407   1.00
H2       0.73155    0.86917    0.81480   1.00
H2       0.60190    0.92974    0.80545   1.00
H2       0.69214    0.87642    0.78619   1.00
H2       0.64272    0.91730    0.78089   1.00
C6       0.72894    0.92821    0.78863   1.00
C6       0.60558    0.86676    0.79135   1.00
H2       0.74208    0.94646    0.81126   1.00
H2       0.59117    0.85316    0.81635   1.00
C6       0.76041    0.92124    0.75626   1.00
C6       0.57589    0.86719    0.75663   1.00
H2       0.70551    0.94588    0.77616   1.00
H2       0.62954    0.84714    0.78377   1.00
C6       0.79765    0.90173    0.77306   1.00
C6       0.53792    0.88939    0.76736   1.00
C6       0.74426    0.89592    0.72247   1.00
C6       0.59393    0.88559    0.71948   1.00
C6       0.77255    0.96137    0.73908   1.00
C6       0.56446    0.82443    0.74691   1.00
H2       0.80942    0.91858    0.79742   1.00
H2       0.52480    0.87750    0.79386   1.00
H2       0.79170    0.87232    0.78351   1.00
H2       0.54346    0.92029    0.77223   1.00
H2       0.82041    0.89947    0.75090   1.00
H2       0.51637    0.88721    0.74402   1.00
H2       0.76545    0.89356    0.69881   1.00
H2       0.57402    0.88322    0.69473   1.00
H2       0.73775    0.86642    0.73244   1.00
H2       0.60006    0.91649    0.72390   1.00
H2       0.71755    0.90859    0.71065   1.00
H2       0.62115    0.87102    0.71176   1.00
H2       0.78458    0.98029    0.76172   1.00
H2       0.55117    0.81018    0.77212   1.00
H2       0.79475    0.95805    0.71646   1.00
H2       0.54351    0.82322    0.72294   1.00
H2       0.74761    0.97628    0.72604   1.00
H2       0.58998    0.80742    0.73832   1.00
C4       1.14525    0.91035    0.91386   1.00
C4       1.18691    0.90915    0.91485   1.00
C3       1.12397    0.91644    0.87866   1.00
C3       1.21004    0.90986    0.88031   1.00
C3       1.12354    0.90536    0.94915   1.00
C3       1.20670    0.90712    0.95153   1.00
C2       1.06095    0.91085    0.91151   1.00
C2       1.27122    0.90868    0.91689   1.00
C3       1.08311    0.91651    0.87741   1.00
C3       1.25091    0.90983    0.88122   1.00
C3       1.08196    0.90540    0.94659   1.00
C3       1.24836    0.90736    0.95121   1.00
H1       1.13737    0.92146    0.85267   1.00
H1       1.19806    0.91003    0.85316   1.00
C5       1.14335    0.90074    0.98573   1.00
C5       1.18498    0.90468    0.98722   1.00
H1       1.06951    0.92090    0.85107   1.00
H1       1.26591    0.91053    0.85528   1.00
H1       1.06552    0.90168    0.97101   1.00
H1       1.26348    0.90621    0.97671   1.00
C6       1.12015    0.89135    1.02214   1.00
C6       1.20619    0.90674    1.02593   1.00
H2       1.09845    0.86917    1.01520   1.00
H2       1.22810    0.92974    1.02455   1.00
H2       1.13786    0.87642    1.04381   1.00
H2       1.18728    0.91730    1.04911   1.00
C6       1.10106    0.92821    1.04137   1.00
C6       1.22442    0.86676    1.03865   1.00
H2       1.08792    0.94646    1.01874   1.00
H2       1.23883    0.85316    1.01365   1.00
C6       1.06959    0.92124    1.07374   1.00
C6       1.25411    0.86719    1.07337   1.00
H2       1.12449    0.94588    1.05384   1.00
H2       1.20046    0.84714    1.04623   1.00
C6       1.03235    0.90173    1.05694   1.00
C6       1.29208    0.88939    1.06264   1.00
C6       1.08574    0.89592    1.10753   1.00
C6       1.23607    0.88559    1.11052   1.00
C6       1.05745    0.96137    1.09092   1.00
C6       1.26554    0.82443    1.08309   1.00
H2       1.02058    0.91858    1.03258   1.00
H2       1.30520    0.87750    1.03614   1.00
H2       1.03830    0.87232    1.04649   1.00
H2       1.28654    0.92029    1.05777   1.00
H2       1.00959    0.89947    1.07910   1.00
H2       1.31363    0.88721    1.08598   1.00
H2       1.06455    0.89356    1.13119   1.00
H2       1.25598    0.88322    1.13527   1.00
H2       1.09225    0.86642    1.09756   1.00
H2       1.22994    0.91649    1.10610   1.00
H2       1.11245    0.90859    1.11935   1.00
H2       1.20885    0.87102    1.11824   1.00
H2       1.04542    0.98029    1.06828   1.00
H2       1.27883    0.81018    1.05788   1.00
H2       1.03525    0.95805    1.11354   1.00
H2       1.28649    0.82322    1.10706   1.00
H2       1.08239    0.97628    1.10396   1.00
H2       1.24002    0.80742    1.09168   1.00
C4       0.91614    0.68475    0.91035   1.00
C4       0.91515    0.64309    0.90915   1.00
C3       0.95134    0.70603    0.91644   1.00
C3       0.94969    0.61996    0.90986   1.00
C3       0.88085    0.70646    0.90536   1.00
C3       0.87847    0.62330    0.90712   1.00
C2       0.91849    0.76905    0.91085   1.00
C2       0.91311    0.55878    0.90868   1.00
C3       0.95259    0.74689    0.91651   1.00
C3       0.94878    0.57909    0.90983   1.00
C3       0.88341    0.74804    0.90540   1.00
C3       0.87879    0.58164    0.90736   1.00
H1       0.97733    0.69263    0.92146   1.00
H1       0.97684    0.63194    0.91003   1.00
C5       0.84427    0.68665    0.90074   1.00
C5       0.84278    0.64502    0.90468   1.00
H1       0.97893    0.76049    0.92090   1.00
H1       0.97472    0.56409    0.91053   1.00
H1       0.85899    0.76448    0.90168   1.00
H1       0.85329    0.56652    0.90621   1.00
C6       0.80786    0.70985    0.89135   1.00
C6       0.80407    0.62381    0.90674   1.00
H2       0.81480    0.73155    0.86917   1.00
H2       0.80545    0.60190    0.92974   1.00
H2       0.78619    0.69214    0.87642   1.00
H2       0.78089    0.64272    0.91730   1.00
C6       0.78863    0.72894    0.92821   1.00
C6       0.79135    0.60558    0.86676   1.00
H2       0.81126    0.74208    0.94646   1.00
H2       0.81635    0.59117    0.85316   1.00
C6       0.75626    0.76041    0.92124   1.00
C6       0.75663    0.57589    0.86719   1.00
H2       0.77616    0.70551    0.94588   1.00
H2       0.78377    0.62954    0.84714   1.00
C6       0.77306    0.79765    0.90173   1.00
C6       0.76736    0.53792    0.88939   1.00
C6       0.72247    0.74426    0.89592   1.00
C6       0.71948    0.59393    0.88559   1.00
C6       0.73908    0.77255    0.96137   1.00
C6       0.74691    0.56446    0.82443   1.00
H2       0.79742    0.80942    0.91858   1.00
H2       0.79386    0.52480    0.87750   1.00
H2       0.78351    0.79170    0.87232   1.00
H2       0.77223    0.54346    0.92029   1.00
H2       0.75090    0.82041    0.89947   1.00
H2       0.74402    0.51637    0.88721   1.00
H2       0.69881    0.76545    0.89356   1.00
H2       0.69473    0.57402    0.88322   1.00
H2       0.73244    0.73775    0.86642   1.00
H2       0.72390    0.60006    0.91649   1.00
H2       0.71065    0.71755    0.90859   1.00
H2       0.71176    0.62115    0.87102   1.00
H2       0.76172    0.78458    0.98029   1.00
H2       0.77212    0.55117    0.81018   1.00
H2       0.71646    0.79475    0.95805   1.00
H2       0.72294    0.54351    0.82322   1.00
H2       0.72604    0.74761    0.97628   1.00
H2       0.73832    0.58998    0.80742   1.00
C4       0.91035    0.91614    0.68475   1.00
C4       0.90915    0.91515    0.64309   1.00
C3       0.91644    0.95134    0.70603   1.00
C3       0.90986    0.94969    0.61996   1.00
C3       0.90536    0.88085    0.70646   1.00
C3       0.90712    0.87847    0.62330   1.00
C2       0.91085    0.91849    0.76905   1.00
C2       0.90868    0.91311    0.55878   1.00
C3       0.91651    0.95259    0.74689   1.00
C3       0.90983    0.94878    0.57909   1.00
C3       0.90540    0.88341    0.74804   1.00
C3       0.90736    0.87879    0.58164   1.00
H1       0.92146    0.97733    0.69263   1.00
H1       0.91003    0.97684    0.63194   1.00
C5       0.90074    0.84427    0.68665   1.00
C5       0.90468    0.84278    0.64502   1.00
H1       0.92090    0.97893    0.76049   1.00
H1       0.91053    0.97472    0.56409   1.00
H1       0.90168    0.85899    0.76448   1.00
H1       0.90621    0.85329    0.56652   1.00
C6       0.89135    0.80786    0.70985   1.00
C6       0.90674    0.80407    0.62381   1.00
H2       0.86917    0.81480    0.73155   1.00
H2       0.92974    0.80545    0.60190   1.00
H2       0.87642    0.78619    0.69214   1.00
H2       0.91730    0.78089    0.64272   1.00
C6       0.92821    0.78863    0.72894   1.00
C6       0.86676    0.79135    0.60558   1.00
H2       0.94646    0.81126    0.74208   1.00
H2       0.85316    0.81635    0.59117   1.00
C6       0.92124    0.75626    0.76041   1.00
C6       0.86719    0.75663    0.57589   1.00
H2       0.94588    0.77616    0.70551   1.00
H2       0.84714    0.78377    0.62954   1.00
C6       0.90173    0.77306    0.79765   1.00
C6       0.88939    0.76736    0.53792   1.00
C6       0.89592    0.72247    0.74426   1.00
C6       0.88559    0.71948    0.59393   1.00
C6       0.96137    0.73908    0.77255   1.00
C6       0.82443    0.74691    0.56446   1.00
H2       0.91858    0.79742    0.80942   1.00
H2       0.87750    0.79386    0.52480   1.00
H2       0.87232    0.78351    0.79170   1.00
H2       0.92029    0.77223    0.54346   1.00
H2       0.89947    0.75090    0.82041   1.00
H2       0.88721    0.74402    0.51637   1.00
H2       0.89356    0.69881    0.76545   1.00
H2       0.88322    0.69473    0.57402   1.00
H2       0.86642    0.73244    0.73775   1.00
H2       0.91649    0.72390    0.60006   1.00
H2       0.90859    0.71065    0.71755   1.00
H2       0.87102    0.71176    0.62115   1.00
H2       0.98029    0.76172    0.78458   1.00
H2       0.81018    0.77212    0.55117   1.00
H2       0.95805    0.71646    0.79475   1.00
H2       0.82322    0.72294    0.54351   1.00
H2       0.97628    0.72604    0.74761   1.00
H2       0.80742    0.73832    0.58998   1.00
C4       0.41035    0.41386    1.14525   1.00
C4       0.40915    0.41485    1.18691   1.00
C3       0.41644    0.37866    1.12397   1.00
C3       0.40986    0.38031    1.21004   1.00
C3       0.40536    0.44915    1.12354   1.00
C3       0.40712    0.45153    1.20670   1.00
C2       0.41085    0.41151    1.06095   1.00
C2       0.40868    0.41689    1.27122   1.00
C3       0.41651    0.37741    1.08311   1.00
C3       0.40983    0.38122    1.25091   1.00
C3       0.40540    0.44659    1.08196   1.00
C3       0.40736    0.45121    1.24836   1.00
H1       0.42146    0.35267    1.13737   1.00
H1       0.41003    0.35316    1.19806   1.00
C5       0.40074    0.48573    1.14335   1.00
C5       0.40468    0.48722    1.18498   1.00
H1       0.42090    0.35107    1.06951   1.00
H1       0.41053    0.35528    1.26591   1.00
H1       0.40168    0.47101    1.06552   1.00
H1       0.40621    0.47671    1.26348   1.00
C6       0.39135    0.52214    1.12015   1.00
C6       0.40674    0.52593    1.20619   1.00
H2       0.36917    0.51520    1.09845   1.00
H2       0.42974    0.52455    1.22810   1.00
H2       0.37642    0.54381    1.13786   1.00
H2       0.41730    0.54911    1.18728   1.00
C6       0.42821    0.54137    1.10106   1.00
C6       0.36676    0.53865    1.22442   1.00
H2       0.44646    0.51874    1.08792   1.00
H2       0.35316    0.51365    1.23883   1.00
C6       0.42124    0.57374    1.06959   1.00
C6       0.36719    0.57337    1.25411   1.00
H2       0.44588    0.55384    1.12449   1.00
H2       0.34714    0.54623    1.20046   1.00
C6       0.40173    0.55694    1.03235   1.00
C6       0.38939    0.56264    1.29208   1.00
C6       0.39592    0.60753    1.08574   1.00
C6       0.38559    0.61052    1.23607   1.00
C6       0.46137    0.59092    1.05745   1.00
C6       0.32443    0.58309    1.26554   1.00
H2       0.41858    0.53258    1.02058   1.00
H2       0.37750    0.53614    1.30520   1.00
H2       0.37232    0.54649    1.03830   1.00
H2       0.42029    0.55777    1.28654   1.00
H2       0.39947    0.57910    1.00959   1.00
H2       0.38721    0.58598    1.31363   1.00
H2       0.39356    0.63119    1.06455   1.00
H2       0.38322    0.63527    1.25598   1.00
H2       0.36642    0.59756    1.09225   1.00
H2       0.41649    0.60610    1.22994   1.00
H2       0.40859    0.61935    1.11245   1.00
H2       0.37102    0.61824    1.20885   1.00
H2       0.48029    0.56828    1.04542   1.00
H2       0.31018    0.55788    1.27883   1.00
H2       0.45805    0.61354    1.03525   1.00
H2       0.32322    0.60706    1.28649   1.00
H2       0.47628    0.60396    1.08239   1.00
H2       0.30742    0.59168    1.24002   1.00
C4       0.41386    0.64525    0.91035   1.00
C4       0.41485    0.68691    0.90915   1.00
C3       0.37866    0.62397    0.91644   1.00
C3       0.38031    0.71004    0.90986   1.00
C3       0.44915    0.62354    0.90536   1.00
C3       0.45153    0.70670    0.90712   1.00
C2       0.41151    0.56095    0.91085   1.00
C2       0.41689    0.77122    0.90868   1.00
C3       0.37741    0.58311    0.91651   1.00
C3       0.38122    0.75091    0.90983   1.00
C3       0.44659    0.58196    0.90540   1.00
C3       0.45121    0.74836    0.90736   1.00
H1       0.35267    0.63737    0.92146   1.00
H1       0.35316    0.69806    0.91003   1.00
C5       0.48573    0.64335    0.90074   1.00
C5       0.48722    0.68498    0.90468   1.00
H1       0.35107    0.56951    0.92090   1.00
H1       0.35528    0.76591    0.91053   1.00
H1       0.47101    0.56552    0.90168   1.00
H1       0.47671    0.76348    0.90621   1.00
C6       0.52214    0.62015    0.89135   1.00
C6       0.52593    0.70619    0.90674   1.00
H2       0.51520    0.59845    0.86917   1.00
H2       0.52455    0.72810    0.92974   1.00
H2       0.54381    0.63786    0.87642   1.00
H2       0.54911    0.68728    0.91730   1.00
C6       0.54137    0.60106    0.92821   1.00
C6       0.53865    0.72442    0.86676   1.00
H2       0.51874    0.58792    0.94646   1.00
H2       0.51365    0.73883    0.85316   1.00
C6       0.57374    0.56959    0.92124   1.00
C6       0.57337    0.75411    0.86719   1.00
H2       0.55384    0.62449    0.94588   1.00
H2       0.54623    0.70046    0.84714   1.00
C6       0.55694    0.53235    0.90173   1.00
C6       0.56264    0.79208    0.88939   1.00
C6       0.60753    0.58574    0.89592   1.00
C6       0.61052    0.73607    0.88559   1.00
C6       0.59092    0.55745    0.96137   1.00
C6       0.58309    0.76554    0.82443   1.00
H2       0.53258    0.52058    0.91858   1.00
H2       0.53614    0.80520    0.87750   1.00
H2       0.54649    0.53830    0.87232   1.00
H2       0.55777    0.78654    0.92029   1.00
H2       0.57910    0.50959    0.89947   1.00
H2       0.58598    0.81363    0.88721   1.00
H2       0.63119    0.56455    0.89356   1.00
H2       0.63527    0.75598    0.88322   1.00
H2       0.59756    0.59225    0.86642   1.00
H2       0.60610    0.72994    0.91649   1.00
H2       0.61935    0.61245    0.90859   1.00
H2       0.61824    0.70885    0.87102   1.00
H2       0.56828    0.54542    0.98029   1.00
H2       0.55788    0.77883    0.81018   1.00
H2       0.61354    0.53525    0.95805   1.00
H2       0.60706    0.78649    0.82322   1.00
H2       0.60396    0.58239    0.97628   1.00
H2       0.59168    0.74002    0.80742   1.00
C4       0.18475    0.41035    0.91614   1.00
C4       0.14309    0.40915    0.91515   1.00
C3       0.20603    0.41644    0.95134   1.00
C3       0.11996    0.40986    0.94969   1.00
C3       0.20646    0.40536    0.88085   1.00
C3       0.12330    0.40712    0.87847   1.00
C2       0.26905    0.41085    0.91849   1.00
C2       0.05878    0.40868    0.91311   1.00
C3       0.24689    0.41651    0.95259   1.00
C3       0.07909    0.40983    0.94878   1.00
C3       0.24804    0.40540    0.88341   1.00
C3       0.08164    0.40736    0.87879   1.00
H1       0.19263    0.42146    0.97733   1.00
H1       0.13194    0.41003    0.97684   1.00
C5       0.18665    0.40074    0.84427   1.00
C5       0.14502    0.40468    0.84278   1.00
H1       0.26049    0.42090    0.97893   1.00
H1       0.06409    0.41053    0.97472   1.00
H1       0.26448    0.40168    0.85899   1.00
H1       0.06652    0.40621    0.85329   1.00
C6       0.20985    0.39135    0.80786   1.00
C6       0.12381    0.40674    0.80407   1.00
H2       0.23155    0.36917    0.81480   1.00
H2       0.10190    0.42974    0.80545   1.00
H2       0.19214    0.37642    0.78619   1.00
H2       0.14272    0.41730    0.78089   1.00
C6       0.22894    0.42821    0.78863   1.00
C6       0.10558    0.36676    0.79135   1.00
H2       0.24208    0.44646    0.81126   1.00
H2       0.09117    0.35316    0.81635   1.00
C6       0.26041    0.42124    0.75626   1.00
C6       0.07589    0.36719    0.75663   1.00
H2       0.20551    0.44588    0.77616   1.00
H2       0.12954    0.34714    0.78377   1.00
C6       0.29765    0.40173    0.77306   1.00
C6       0.03792    0.38939    0.76736   1.00
C6       0.24426    0.39592    0.72247   1.00
C6       0.09393    0.38559    0.71948   1.00
C6       0.27255    0.46137    0.73908   1.00
C6       0.06446    0.32443    0.74691   1.00
H2       0.30942    0.41858    0.79742   1.00
H2       0.02480    0.37750    0.79386   1.00
H2       0.29170    0.37232    0.78351   1.00
H2       0.04346    0.42029    0.77223   1.00
H2       0.32041    0.39947    0.75090   1.00
H2       0.01637    0.38721    0.74402   1.00
H2       0.26545    0.39356    0.69881   1.00
H2       0.07402    0.38322    0.69473   1.00
H2       0.23775    0.36642    0.73244   1.00
H2       0.10006    0.41649    0.72390   1.00
H2       0.21755    0.40859    0.71065   1.00
H2       0.12115    0.37102    0.71176   1.00
H2       0.28458    0.48029    0.76172   1.00
H2       0.05117    0.31018    0.77212   1.00
H2       0.29475    0.45805    0.71646   1.00
H2       0.04351    0.32322    0.72294   1.00
H2       0.24761    0.47628    0.72604   1.00
H2       0.08998    0.30742    0.73832   1.00
C4       0.64525    0.41035    0.91386   1.00
C4       0.68691    0.40915    0.91485   1.00
C3       0.62397    0.41644    0.87866   1.00
C3       0.71004    0.40986    0.88031   1.00
C3       0.62354    0.40536    0.94915   1.00
C3       0.70670    0.40712    0.95153   1.00
C2       0.56095    0.41085    0.91151   1.00
C2       0.77122    0.40868    0.91689   1.00
C3       0.58311    0.41651    0.87741   1.00
C3       0.75091    0.40983    0.88122   1.00
C3       0.58196    0.40540    0.94659   1.00
C3       0.74836    0.40736    0.95121   1.00
H1       0.63737    0.42146    0.85267   1.00
H1       0.69806    0.41003    0.85316   1.00
C5       0.64335    0.40074    0.98573   1.00
C5       0.68498    0.40468    0.98722   1.00
H1       0.56951    0.42090    0.85107   1.00
H1       0.76591    0.41053    0.85528   1.00
H1       0.56552    0.40168    0.97101   1.00
H1       0.76348    0.40621    0.97671   1.00
C6       0.62015    0.39135    1.02214   1.00
C6       0.70619    0.40674    1.02593   1.00
H2       0.59845    0.36917    1.01520   1.00
H2       0.72810    0.42974    1.02455   1.00
H2       0.63786    0.37642    1.04381   1.00
H2       0.68728    0.41730    1.04911   1.00
C6       0.60106    0.42821    1.04137   1.00
C6       0.72442    0.36676    1.03865   1.00
H2       0.58792    0.44646    1.01874   1.00
H2       0.73883    0.35316    1.01365   1.00
C6       0.56959    0.42124    1.07374   1.00
C6       0.75411    0.36719    1.07337   1.00
H2       0.62449    0.44588    1.05384   1.00
H2       0.70046    0.34714    1.04623   1.00
C6       0.53235    0.40173    1.05694   1.00
C6       0.79208    0.38939    1.06264   1.00
C6       0.58574    0.39592    1.10753   1.00
C6       0.73607    0.38559    1.11052   1.00
C6       0.55745    0.46137    1.09092   1.00
C6       0.76554    0.32443    1.08309   1.00
H2       0.52058    0.41858    1.03258   1.00
H2       0.80520    0.37750    1.03614   1.00
H2       0.53830    0.37232    1.04649   1.00
H2       0.78654    0.42029    1.05777   1.00
H2       0.50959    0.39947    1.07910   1.00
H2       0.81363    0.38721    1.08598   1.00
H2       0.56455    0.39356    1.13119   1.00
H2       0.75598    0.38322    1.13527   1.00
H2       0.59225    0.36642    1.09756   1.00
H2       0.72994    0.41649    1.10610   1.00
H2       0.61245    0.40859    1.11935   1.00
H2       0.70885    0.37102    1.11824   1.00
H2       0.54542    0.48029    1.06828   1.00
H2       0.77883    0.31018    1.05788   1.00
H2       0.53525    0.45805    1.11354   1.00
H2       0.78649    0.32322    1.10706   1.00
H2       0.58239    0.47628    1.10396   1.00
H2       0.74002    0.30742    1.09168   1.00
C4       0.41614    0.18475    0.91035   1.00
C4       0.41515    0.14309    0.90915   1.00
C3       0.45134    0.20603    0.91644   1.00
C3       0.44969    0.11996    0.90986   1.00
C3       0.38085    0.20646    0.90536   1.00
C3       0.37847    0.12330    0.90712   1.00
C2       0.41849    0.26905    0.91085   1.00
C2       0.41311    0.05878    0.90868   1.00
C3       0.45259    0.24689    0.91651   1.00
C3       0.44878    0.07909    0.90983   1.00
C3       0.38341    0.24804    0.90540   1.00
C3       0.37879    0.08164    0.90736   1.00
H1       0.47733    0.19263    0.92146   1.00
H1       0.47684    0.13194    0.91003   1.00
C5       0.34427    0.18665    0.90074   1.00
C5       0.34278    0.14502    0.90468   1.00
H1       0.47893    0.26049    0.92090   1.00
H1       0.47472    0.06409    0.91053   1.00
H1       0.35899    0.26448    0.90168   1.00
H1       0.35329    0.06652    0.90621   1.00
C6       0.30786    0.20985    0.89135   1.00
C6       0.30407    0.12381    0.90674   1.00
H2       0.31480    0.23155    0.86917   1.00
H2       0.30545    0.10190    0.92974   1.00
H2       0.28619    0.19214    0.87642   1.00
H2       0.28089    0.14272    0.91730   1.00
C6       0.28863    0.22894    0.92821   1.00
C6       0.29135    0.10558    0.86676   1.00
H2       0.31126    0.24208    0.94646   1.00
H2       0.31635    0.09117    0.85316   1.00
C6       0.25626    0.26041    0.92124   1.00
C6       0.25663    0.07589    0.86719   1.00
H2       0.27616    0.20551    0.94588   1.00
H2       0.28377    0.12954    0.84714   1.00
C6       0.27306    0.29765    0.90173   1.00
C6       0.26736    0.03792    0.88939   1.00
C6       0.22247    0.24426    0.89592   1.00
C6       0.21948    0.09393    0.88559   1.00
C6       0.23908    0.27255    0.96137   1.00
C6       0.24691    0.06446    0.82443   1.00
H2       0.29742    0.30942    0.91858   1.00
H2       0.29386    0.02480    0.87750   1.00
H2       0.28351    0.29170    0.87232   1.00
H2       0.27223    0.04346    0.92029   1.00
H2       0.25090    0.32041    0.89947   1.00
H2       0.24402    0.01637    0.88721   1.00
H2       0.19881    0.26545    0.89356   1.00
H2       0.19473    0.07402    0.88322   1.00
H2       0.23244    0.23775    0.86642   1.00
H2       0.22390    0.10006    0.91649   1.00
H2       0.21065    0.21755    0.90859   1.00
H2       0.21176    0.12115    0.87102   1.00
H2       0.26172    0.28458    0.98029   1.00
H2       0.27212    0.05117    0.81018   1.00
H2       0.21646    0.29475    0.95805   1.00
H2       0.22294    0.04351    0.82322   1.00
H2       0.22604    0.24761    0.97628   1.00
H2       0.23832    0.08998    0.80742   1.00
C4       0.41035    0.41614    0.68475   1.00
C4       0.40915    0.41515    0.64309   1.00
C3       0.41644    0.45134    0.70603   1.00
C3       0.40986    0.44969    0.61996   1.00
C3       0.40536    0.38085    0.70646   1.00
C3       0.40712    0.37847    0.62330   1.00
C2       0.41085    0.41849    0.76905   1.00
C2       0.40868    0.41311    0.55878   1.00
C3       0.41651    0.45259    0.74689   1.00
C3       0.40983    0.44878    0.57909   1.00
C3       0.40540    0.38341    0.74804   1.00
C3       0.40736    0.37879    0.58164   1.00
H1       0.42146    0.47733    0.69263   1.00
H1       0.41003    0.47684    0.63194   1.00
C5       0.40074    0.34427    0.68665   1.00
C5       0.40468    0.34278    0.64502   1.00
H1       0.42090    0.47893    0.76049   1.00
H1       0.41053    0.47472    0.56409   1.00
H1       0.40168    0.35899    0.76448   1.00
H1       0.40621    0.35329    0.56652   1.00
C6       0.39135    0.30786    0.70985   1.00
C6       0.40674    0.30407    0.62381   1.00
H2       0.36917    0.31480    0.73155   1.00
H2       0.42974    0.30545    0.60190   1.00
H2       0.37642    0.28619    0.69214   1.00
H2       0.41730    0.28089    0.64272   1.00
C6       0.42821    0.28863    0.72894   1.00
C6       0.36676    0.29135    0.60558   1.00
H2       0.44646    0.31126    0.74208   1.00
H2       0.35316    0.31635    0.59117   1.00
C6       0.42124    0.25626    0.76041   1.00
C6       0.36719    0.25663    0.57589   1.00
H2       0.44588    0.27616    0.70551   1.00
H2       0.34714    0.28377    0.62954   1.00
C6       0.40173    0.27306    0.79765   1.00
C6       0.38939    0.26736    0.53792   1.00
C6       0.39592    0.22247    0.74426   1.00
C6       0.38559    0.21948    0.59393   1.00
C6       0.46137    0.23908    0.77255   1.00
C6       0.32443    0.24691    0.56446   1.00
H2       0.41858    0.29742    0.80942   1.00
H2       0.37750    0.29386    0.52480   1.00
H2       0.37232    0.28351    0.79170   1.00
H2       0.42029    0.27223    0.54346   1.00
H2       0.39947    0.25090    0.82041   1.00
H2       0.38721    0.24402    0.51637   1.00
H2       0.39356    0.19881    0.76545   1.00
H2       0.38322    0.19473    0.57402   1.00
H2       0.36642    0.23244    0.73775   1.00
H2       0.41649    0.22390    0.60006   1.00
H2       0.40859    0.21065    0.71755   1.00
H2       0.37102    0.21176    0.62115   1.00
H2       0.48029    0.26172    0.78458   1.00
H2       0.31018    0.27212    0.55117   1.00
H2       0.45805    0.21646    0.79475   1.00
H2       0.32322    0.22294    0.54351   1.00
H2       0.47628    0.22604    0.74761   1.00
H2       0.30742    0.23832    0.58998   1.00
C4       0.41035    0.91386    0.64525   1.00
C4       0.40915    0.91485    0.68691   1.00
C3       0.41644    0.87866    0.62397   1.00
C3       0.40986    0.88031    0.71004   1.00
C3       0.40536    0.94915    0.62354   1.00
C3       0.40712    0.95153    0.70670   1.00
C2       0.41085    0.91151    0.56095   1.00
C2       0.40868    0.91689    0.77122   1.00
C3       0.41651    0.87741    0.58311   1.00
C3       0.40983    0.88122    0.75091   1.00
C3       0.40540    0.94659    0.58196   1.00
C3       0.40736    0.95121    0.74836   1.00
H1       0.42146    0.85267    0.63737   1.00
H1       0.41003    0.85316    0.69806   1.00
C5       0.40074    0.98573    0.64335   1.00
C5       0.40468    0.98722    0.68498   1.00
H1       0.42090    0.85107    0.56951   1.00
H1       0.41053    0.85528    0.76591   1.00
H1       0.40168    0.97101    0.56552   1.00
H1       0.40621    0.97671    0.76348   1.00
C6       0.39135    1.02214    0.62015   1.00
C6       0.40674    1.02593    0.70619   1.00
H2       0.36917    1.01520    0.59845   1.00
H2       0.42974    1.02455    0.72810   1.00
H2       0.37642    1.04381    0.63786   1.00
H2       0.41730    1.04911    0.68728   1.00
C6       0.42821    1.04137    0.60106   1.00
C6       0.36676    1.03865    0.72442   1.00
H2       0.44646    1.01874    0.58792   1.00
H2       0.35316    1.01365    0.73883   1.00
C6       0.42124    1.07374    0.56959   1.00
C6       0.36719    1.07337    0.75411   1.00
H2       0.44588    1.05384    0.62449   1.00
H2       0.34714    1.04623    0.70046   1.00
C6       0.40173    1.05694    0.53235   1.00
C6       0.38939    1.06264    0.79208   1.00
C6       0.39592    1.10753    0.58574   1.00
C6       0.38559    1.11052    0.73607   1.00
C6       0.46137    1.09092    0.55745   1.00
C6       0.32443    1.08309    0.76554   1.00
H2       0.41858    1.03258    0.52058   1.00
H2       0.37750    1.03614    0.80520   1.00
H2       0.37232    1.04649    0.53830   1.00
H2       0.42029    1.05777    0.78654   1.00
H2       0.39947    1.07910    0.50959   1.00
H2       0.38721    1.08598    0.81363   1.00
H2       0.39356    1.13119    0.56455   1.00
H2       0.38322    1.13527    0.75598   1.00
H2       0.36642    1.09756    0.59225   1.00
H2       0.41649    1.10610    0.72994   1.00
H2       0.40859    1.11935    0.61245   1.00
H2       0.37102    1.11824    0.70885   1.00
H2       0.48029    1.06828    0.54542   1.00
H2       0.31018    1.05788    0.77883   1.00
H2       0.45805    1.11354    0.53525   1.00
H2       0.32322    1.10706    0.78649   1.00
H2       0.47628    1.10396    0.58239   1.00
H2       0.30742    1.09168    0.74002   1.00
C4       0.41386    1.14525    0.41035   1.00
C4       0.41485    1.18691    0.40915   1.00
C3       0.37866    1.12397    0.41644   1.00
C3       0.38031    1.21004    0.40986   1.00
C3       0.44915    1.12354    0.40536   1.00
C3       0.45153    1.20670    0.40712   1.00
C2       0.41151    1.06095    0.41085   1.00
C2       0.41689    1.27122    0.40868   1.00
C3       0.37741    1.08311    0.41651   1.00
C3       0.38122    1.25091    0.40983   1.00
C3       0.44659    1.08196    0.40540   1.00
C3       0.45121    1.24836    0.40736   1.00
H1       0.35267    1.13737    0.42146   1.00
H1       0.35316    1.19806    0.41003   1.00
C5       0.48573    1.14335    0.40074   1.00
C5       0.48722    1.18498    0.40468   1.00
H1       0.35107    1.06951    0.42090   1.00
H1       0.35528    1.26591    0.41053   1.00
H1       0.47101    1.06552    0.40168   1.00
H1       0.47671    1.26348    0.40621   1.00
C6       0.52214    1.12015    0.39135   1.00
C6       0.52593    1.20619    0.40674   1.00
H2       0.51520    1.09845    0.36917   1.00
H2       0.52455    1.22810    0.42974   1.00
H2       0.54381    1.13786    0.37642   1.00
H2       0.54911    1.18728    0.41730   1.00
C6       0.54137    1.10106    0.42821   1.00
C6       0.53865    1.22442    0.36676   1.00
H2       0.51874    1.08792    0.44646   1.00
H2       0.51365    1.23883    0.35316   1.00
C6       0.57374    1.06959    0.42124   1.00
C6       0.57337    1.25411    0.36719   1.00
H2       0.55384    1.12449    0.44588   1.00
H2       0.54623    1.20046    0.34714   1.00
C6       0.55694    1.03235    0.40173   1.00
C6       0.56264    1.29208    0.38939   1.00
C6       0.60753    1.08574    0.39592   1.00
C6       0.61052    1.23607    0.38559   1.00
C6       0.59092    1.05745    0.46137   1.00
C6       0.58309    1.26554    0.32443   1.00
H2       0.53258    1.02058    0.41858   1.00
H2       0.53614    1.30520    0.37750   1.00
H2       0.54649    1.03830    0.37232   1.00
H2       0.55777    1.28654    0.42029   1.00
H2       0.57910    1.00959    0.39947   1.00
H2       0.58598    1.31363    0.38721   1.00
H2       0.63119    1.06455    0.39356   1.00
H2       0.63527    1.25598    0.38322   1.00
H2       0.59756    1.09225    0.36642   1.00
H2       0.60610    1.22994    0.41649   1.00
H2       0.61935    1.11245    0.40859   1.00
H2       0.61824    1.20885    0.37102   1.00
H2       0.56828    1.04542    0.48029   1.00
H2       0.55788    1.27883    0.31018   1.00
H2       0.61354    1.03525    0.45805   1.00
H2       0.60706    1.28649    0.32322   1.00
H2       0.60396    1.08239    0.47628   1.00
H2       0.59168    1.24002    0.30742   1.00
C4       0.18475    0.91035    0.41614   1.00
C4       0.14309    0.90915    0.41515   1.00
C3       0.20603    0.91644    0.45134   1.00
C3       0.11996    0.90986    0.44969   1.00
C3       0.20646    0.90536    0.38085   1.00
C3       0.12330    0.90712    0.37847   1.00
C2       0.26905    0.91085    0.41849   1.00
C2       0.05878    0.90868    0.41311   1.00
C3       0.24689    0.91651    0.45259   1.00
C3       0.07909    0.90983    0.44878   1.00
C3       0.24804    0.90540    0.38341   1.00
C3       0.08164    0.90736    0.37879   1.00
H1       0.19263    0.92146    0.47733   1.00
H1       0.13194    0.91003    0.47684   1.00
C5       0.18665    0.90074    0.34427   1.00
C5       0.14502    0.90468    0.34278   1.00
H1       0.26049    0.92090    0.47893   1.00
H1       0.06409    0.91053    0.47472   1.00
H1       0.26448    0.90168    0.35899   1.00
H1       0.06652    0.90621    0.35329   1.00
C6       0.20985    0.89135    0.30786   1.00
C6       0.12381    0.90674    0.30407   1.00
H2       0.23155    0.86917    0.31480   1.00
H2       0.10190    0.92974    0.30545   1.00
H2       0.19214    0.87642    0.28619   1.00
H2       0.14272    0.91730    0.28089   1.00
C6       0.22894    0.92821    0.28863   1.00
C6       0.10558    0.86676    0.29135   1.00
H2       0.24208    0.94646    0.31126   1.00
H2       0.09117    0.85316    0.31635   1.00
C6       0.26041    0.92124    0.25626   1.00
C6       0.07589    0.86719    0.25663   1.00
H2       0.20551    0.94588    0.27616   1.00
H2       0.12954    0.84714    0.28377   1.00
C6       0.29765    0.90173    0.27306   1.00
C6       0.03792    0.88939    0.26736   1.00
C6       0.24426    0.89592    0.22247   1.00
C6       0.09393    0.88559    0.21948   1.00
C6       0.27255    0.96137    0.23908   1.00
C6       0.06446    0.82443    0.24691   1.00
H2       0.30942    0.91858    0.29742   1.00
H2       0.02480    0.87750    0.29386   1.00
H2       0.29170    0.87232    0.28351   1.00
H2       0.04346    0.92029    0.27223   1.00
H2       0.32041    0.89947    0.25090   1.00
H2       0.01637    0.88721    0.24402   1.00
H2       0.26545    0.89356    0.19881   1.00
H2       0.07402    0.88322    0.19473   1.00
H2       0.23775    0.86642    0.23244   1.00
H2       0.10006    0.91649    0.22390   1.00
H2       0.21755    0.90859    0.21065   1.00
H2       0.12115    0.87102    0.21176   1.00
H2       0.28458    0.98029    0.26172   1.00
H2       0.05117    0.81018    0.27212   1.00
H2       0.29475    0.95805    0.21646   1.00
H2       0.04351    0.82322    0.22294   1.00
H2       0.24761    0.97628    0.22604   1.00
H2       0.08998    0.80742    0.23832   1.00
C4       0.64525    0.91035    0.41386   1.00
C4       0.68691    0.90915    0.41485   1.00
C3       0.62397    0.91644    0.37866   1.00
C3       0.71004    0.90986    0.38031   1.00
C3       0.62354    0.90536    0.44915   1.00
C3       0.70670    0.90712    0.45153   1.00
C2       0.56095    0.91085    0.41151   1.00
C2       0.77122    0.90868    0.41689   1.00
C3       0.58311    0.91651    0.37741   1.00
C3       0.75091    0.90983    0.38122   1.00
C3       0.58196    0.90540    0.44659   1.00
C3       0.74836    0.90736    0.45121   1.00
H1       0.63737    0.92146    0.35267   1.00
H1       0.69806    0.91003    0.35316   1.00
C5       0.64335    0.90074    0.48573   1.00
C5       0.68498    0.90468    0.48722   1.00
H1       0.56951    0.92090    0.35107   1.00
H1       0.76591    0.91053    0.35528   1.00
H1       0.56552    0.90168    0.47101   1.00
H1       0.76348    0.90621    0.47671   1.00
C6       0.62015    0.89135    0.52214   1.00
C6       0.70619    0.90674    0.52593   1.00
H2       0.59845    0.86917    0.51520   1.00
H2       0.72810    0.92974    0.52455   1.00
H2       0.63786    0.87642    0.54381   1.00
H2       0.68728    0.91730    0.54911   1.00
C6       0.60106    0.92821    0.54137   1.00
C6       0.72442    0.86676    0.53865   1.00
H2       0.58792    0.94646    0.51874   1.00
H2       0.73883    0.85316    0.51365   1.00
C6       0.56959    0.92124    0.57374   1.00
C6       0.75411    0.86719    0.57337   1.00
H2       0.62449    0.94588    0.55384   1.00
H2       0.70046    0.84714    0.54623   1.00
C6       0.53235    0.90173    0.55694   1.00
C6       0.79208    0.88939    0.56264   1.00
C6       0.58574    0.89592    0.60753   1.00
C6       0.73607    0.88559    0.61052   1.00
C6       0.55745    0.96137    0.59092   1.00
C6       0.76554    0.82443    0.58309   1.00
H2       0.52058    0.91858    0.53258   1.00
H2       0.80520    0.87750    0.53614   1.00
H2       0.53830    0.87232    0.54649   1.00
H2       0.78654    0.92029    0.55777   1.00
H2       0.50959    0.89947    0.57910   1.00
H2       0.81363    0.88721    0.58598   1.00
H2       0.56455    0.89356    0.63119   1.00
H2       0.75598    0.88322    0.63527   1.00
H2       0.59225    0.86642    0.59756   1.00
H2       0.72994    0.91649    0.60610   1.00
H2       0.61245    0.90859    0.61935   1.00
H2       0.70885    0.87102    0.61824   1.00
H2       0.54542    0.98029    0.56828   1.00
H2       0.77883    0.81018    0.55788   1.00
H2       0.53525    0.95805    0.61354   1.00
H2       0.78649    0.82322    0.60706   1.00
H2       0.58239    0.97628    0.60396   1.00
H2       0.74002    0.80742    0.59168   1.00
C4       0.41614    0.68475    0.41035   1.00
C4       0.41515    0.64309    0.40915   1.00
C3       0.45134    0.70603    0.41644   1.00
C3       0.44969    0.61996    0.40986   1.00
C3       0.38085    0.70646    0.40536   1.00
C3       0.37847    0.62330    0.40712   1.00
C2       0.41849    0.76905    0.41085   1.00
C2       0.41311    0.55878    0.40868   1.00
C3       0.45259    0.74689    0.41651   1.00
C3       0.44878    0.57909    0.40983   1.00
C3       0.38341    0.74804    0.40540   1.00
C3       0.37879    0.58164    0.40736   1.00
H1       0.47733    0.69263    0.42146   1.00
H1       0.47684    0.63194    0.41003   1.00
C5       0.34427    0.68665    0.40074   1.00
C5       0.34278    0.64502    0.40468   1.00
H1       0.47893    0.76049    0.42090   1.00
H1       0.47472    0.56409    0.41053   1.00
H1       0.35899    0.76448    0.40168   1.00
H1       0.35329    0.56652    0.40621   1.00
C6       0.30786    0.70985    0.39135   1.00
C6       0.30407    0.62381    0.40674   1.00
H2       0.31480    0.73155    0.36917   1.00
H2       0.30545    0.60190    0.42974   1.00
H2       0.28619    0.69214    0.37642   1.00
H2       0.28089    0.64272    0.41730   1.00
C6       0.28863    0.72894    0.42821   1.00
C6       0.29135    0.60558    0.36676   1.00
H2       0.31126    0.74208    0.44646   1.00
H2       0.31635    0.59117    0.35316   1.00
C6       0.25626    0.76041    0.42124   1.00
C6       0.25663    0.57589    0.36719   1.00
H2       0.27616    0.70551    0.44588   1.00
H2       0.28377    0.62954    0.34714   1.00
C6       0.27306    0.79765    0.40173   1.00
C6       0.26736    0.53792    0.38939   1.00
C6       0.22247    0.74426    0.39592   1.00
C6       0.21948    0.59393    0.38559   1.00
C6       0.23908    0.77255    0.46137   1.00
C6       0.24691    0.56446    0.32443   1.00
H2       0.29742    0.80942    0.41858   1.00
H2       0.29386    0.52480    0.37750   1.00
H2       0.28351    0.79170    0.37232   1.00
H2       0.27223    0.54346    0.42029   1.00
H2       0.25090    0.82041    0.39947   1.00
H2       0.24402    0.51637    0.38721   1.00
H2       0.19881    0.76545    0.39356   1.00
H2       0.19473    0.57402    0.38322   1.00
H2       0.23244    0.73775    0.36642   1.00
H2       0.22390    0.60006    0.41649   1.00
H2       0.21065    0.71755    0.40859   1.00
H2       0.21176    0.62115    0.37102   1.00
H2       0.26172    0.78458    0.48029   1.00
H2       0.27212    0.55117    0.31018   1.00
H2       0.21646    0.79475    0.45805   1.00
H2       0.22294    0.54351    0.32322   1.00
H2       0.22604    0.74761    0.47628   1.00
H2       0.23832    0.58998    0.30742   1.00
C4       0.41035    0.91614    0.18475   1.00
C4       0.40915    0.91515    0.14309   1.00
C3       0.41644    0.95134    0.20603   1.00
C3       0.40986    0.94969    0.11996   1.00
C3       0.40536    0.88085    0.20646   1.00
C3       0.40712    0.87847    0.12330   1.00
C2       0.41085    0.91849    0.26905   1.00
C2       0.40868    0.91311    0.05878   1.00
C3       0.41651    0.95259    0.24689   1.00
C3       0.40983    0.94878    0.07909   1.00
C3       0.40540    0.88341    0.24804   1.00
C3       0.40736    0.87879    0.08164   1.00
H1       0.42146    0.97733    0.19263   1.00
H1       0.41003    0.97684    0.13194   1.00
C5       0.40074    0.84427    0.18665   1.00
C5       0.40468    0.84278    0.14502   1.00
H1       0.42090    0.97893    0.26049   1.00
H1       0.41053    0.97472    0.06409   1.00
H1       0.40168    0.85899    0.26448   1.00
H1       0.40621    0.85329    0.06652   1.00
C6       0.39135    0.80786    0.20985   1.00
C6       0.40674    0.80407    0.12381   1.00
H2       0.36917    0.81480    0.23155   1.00
H2       0.42974    0.80545    0.10190   1.00
H2       0.37642    0.78619    0.19214   1.00
H2       0.41730    0.78089    0.14272   1.00
C6       0.42821    0.78863    0.22894   1.00
C6       0.36676    0.79135    0.10558   1.00
H2       0.44646    0.81126    0.24208   1.00
H2       0.35316    0.81635    0.09117   1.00
C6       0.42124    0.75626    0.26041   1.00
C6       0.36719    0.75663    0.07589   1.00
H2       0.44588    0.77616    0.20551   1.00
H2       0.34714    0.78377    0.12954   1.00
C6       0.40173    0.77306    0.29765   1.00
C6       0.38939    0.76736    0.03792   1.00
C6       0.39592    0.72247    0.24426   1.00
C6       0.38559    0.71948    0.09393   1.00
C6       0.46137    0.73908    0.27255   1.00
C6       0.32443    0.74691    0.06446   1.00
H2       0.41858    0.79742    0.30942   1.00
H2       0.37750    0.79386    0.02480   1.00
H2       0.37232    0.78351    0.29170   1.00
H2       0.42029    0.77223    0.04346   1.00
H2       0.39947    0.75090    0.32041   1.00
H2       0.38721    0.74402    0.01637   1.00
H2       0.39356    0.69881    0.26545   1.00
H2       0.38322    0.69473    0.07402   1.00
H2       0.36642    0.73244    0.23775   1.00
H2       0.41649    0.72390    0.10006   1.00
H2       0.40859    0.71065    0.21755   1.00
H2       0.37102    0.71176    0.12115   1.00
H2       0.48029    0.76172    0.28458   1.00
H2       0.31018    0.77212    0.05117   1.00
H2       0.45805    0.71646    0.29475   1.00
H2       0.32322    0.72294    0.04351   1.00
H2       0.47628    0.72604    0.24761   1.00
H2       0.30742    0.73832    0.08998   1.00
C4       0.91035    0.41386    0.64525   1.00
C4       0.90915    0.41485    0.68691   1.00
C3       0.91644    0.37866    0.62397   1.00
C3       0.90986    0.38031    0.71004   1.00
C3       0.90536    0.44915    0.62354   1.00
C3       0.90712    0.45153    0.70670   1.00
C2       0.91085    0.41151    0.56095   1.00
C2       0.90868    0.41689    0.77122   1.00
C3       0.91651    0.37741    0.58311   1.00
C3       0.90983    0.38122    0.75091   1.00
C3       0.90540    0.44659    0.58196   1.00
C3       0.90736    0.45121    0.74836   1.00
H1       0.92146    0.35267    0.63737   1.00
H1       0.91003    0.35316    0.69806   1.00
C5       0.90074    0.48573    0.64335   1.00
C5       0.90468    0.48722    0.68498   1.00
H1       0.92090    0.35107    0.56951   1.00
H1       0.91053    0.35528    0.76591   1.00
H1       0.90168    0.47101    0.56552   1.00
H1       0.90621    0.47671    0.76348   1.00
C6       0.89135    0.52214    0.62015   1.00
C6       0.90674    0.52593    0.70619   1.00
H2       0.86917    0.51520    0.59845   1.00
H2       0.92974    0.52455    0.72810   1.00
H2       0.87642    0.54381    0.63786   1.00
H2       0.91730    0.54911    0.68728   1.00
C6       0.92821    0.54137    0.60106   1.00
C6       0.86676    0.53865    0.72442   1.00
H2       0.94646    0.51874    0.58792   1.00
H2       0.85316    0.51365    0.73883   1.00
C6       0.92124    0.57374    0.56959   1.00
C6       0.86719    0.57337    0.75411   1.00
H2       0.94588    0.55384    0.62449   1.00
H2       0.84714    0.54623    0.70046   1.00
C6       0.90173    0.55694    0.53235   1.00
C6       0.88939    0.56264    0.79208   1.00
C6       0.89592    0.60753    0.58574   1.00
C6       0.88559    0.61052    0.73607   1.00
C6       0.96137    0.59092    0.55745   1.00
C6       0.82443    0.58309    0.76554   1.00
H2       0.91858    0.53258    0.52058   1.00
H2       0.87750    0.53614    0.80520   1.00
H2       0.87232    0.54649    0.53830   1.00
H2       0.92029    0.55777    0.78654   1.00
H2       0.89947    0.57910    0.50959   1.00
H2       0.88721    0.58598    0.81363   1.00
H2       0.89356    0.63119    0.56455   1.00
H2       0.88322    0.63527    0.75598   1.00
H2       0.86642    0.59756    0.59225   1.00
H2       0.91649    0.60610    0.72994   1.00
H2       0.90859    0.61935    0.61245   1.00
H2       0.87102    0.61824    0.70885   1.00
H2       0.98029    0.56828    0.54542   1.00
H2       0.81018    0.55788    0.77883   1.00
H2       0.95805    0.61354    0.53525   1.00
H2       0.82322    0.60706    0.78649   1.00
H2       0.97628    0.60396    0.58239   1.00
H2       0.80742    0.59168    0.74002   1.00
C4       0.91386    0.64525    0.41035   1.00
C4       0.91485    0.68691    0.40915   1.00
C3       0.87866    0.62397    0.41644   1.00
C3       0.88031    0.71004    0.40986   1.00
C3       0.94915    0.62354    0.40536   1.00
C3       0.95153    0.70670    0.40712   1.00
C2       0.91151    0.56095    0.41085   1.00
C2       0.91689    0.77122    0.40868   1.00
C3       0.87741    0.58311    0.41651   1.00
C3       0.88122    0.75091    0.40983   1.00
C3       0.94659    0.58196    0.40540   1.00
C3       0.95121    0.74836    0.40736   1.00
H1       0.85267    0.63737    0.42146   1.00
H1       0.85316    0.69806    0.41003   1.00
C5       0.98573    0.64335    0.40074   1.00
C5       0.98722    0.68498    0.40468   1.00
H1       0.85107    0.56951    0.42090   1.00
H1       0.85528    0.76591    0.41053   1.00
H1       0.97101    0.56552    0.40168   1.00
H1       0.97671    0.76348    0.40621   1.00
C6       1.02214    0.62015    0.39135   1.00
C6       1.02593    0.70619    0.40674   1.00
H2       1.01520    0.59845    0.36917   1.00
H2       1.02455    0.72810    0.42974   1.00
H2       1.04381    0.63786    0.37642   1.00
H2       1.04911    0.68728    0.41730   1.00
C6       1.04137    0.60106    0.42821   1.00
C6       1.03865    0.72442    0.36676   1.00
H2       1.01874    0.58792    0.44646   1.00
H2       1.01365    0.73883    0.35316   1.00
C6       1.07374    0.56959    0.42124   1.00
C6       1.07337    0.75411    0.36719   1.00
H2       1.05384    0.62449    0.44588   1.00
H2       1.04623    0.70046    0.34714   1.00
C6       1.05694    0.53235    0.40173   1.00
C6       1.06264    0.79208    0.38939   1.00
C6       1.10753    0.58574    0.39592   1.00
C6       1.11052    0.73607    0.38559   1.00
C6       1.09092    0.55745    0.46137   1.00
C6       1.08309    0.76554    0.32443   1.00
H2       1.03258    0.52058    0.41858   1.00
H2       1.03614    0.80520    0.37750   1.00
H2       1.04649    0.53830    0.37232   1.00
H2       1.05777    0.78654    0.42029   1.00
H2       1.07910    0.50959    0.39947   1.00
H2       1.08598    0.81363    0.38721   1.00
H2       1.13119    0.56455    0.39356   1.00
H2       1.13527    0.75598    0.38322   1.00
H2       1.09756    0.59225    0.36642   1.00
H2       1.10610    0.72994    0.41649   1.00
H2       1.11935    0.61245    0.40859   1.00
H2       1.11824    0.70885    0.37102   1.00
H2       1.06828    0.54542    0.48029   1.00
H2       1.05788    0.77883    0.31018   1.00
H2       1.11354    0.53525    0.45805   1.00
H2       1.10706    0.78649    0.32322   1.00
H2       1.10396    0.58239    0.47628   1.00
H2       1.09168    0.74002    0.30742   1.00
C4       0.68475    0.41035    0.41614   1.00
C4       0.64309    0.40915    0.41515   1.00
C3       0.70603    0.41644    0.45134   1.00
C3       0.61996    0.40986    0.44969   1.00
C3       0.70646    0.40536    0.38085   1.00
C3       0.62330    0.40712    0.37847   1.00
C2       0.76905    0.41085    0.41849   1.00
C2       0.55878    0.40868    0.41311   1.00
C3       0.74689    0.41651    0.45259   1.00
C3       0.57909    0.40983    0.44878   1.00
C3       0.74804    0.40540    0.38341   1.00
C3       0.58164    0.40736    0.37879   1.00
H1       0.69263    0.42146    0.47733   1.00
H1       0.63194    0.41003    0.47684   1.00
C5       0.68665    0.40074    0.34427   1.00
C5       0.64502    0.40468    0.34278   1.00
H1       0.76049    0.42090    0.47893   1.00
H1       0.56409    0.41053    0.47472   1.00
H1       0.76448    0.40168    0.35899   1.00
H1       0.56652    0.40621    0.35329   1.00
C6       0.70985    0.39135    0.30786   1.00
C6       0.62381    0.40674    0.30407   1.00
H2       0.73155    0.36917    0.31480   1.00
H2       0.60190    0.42974    0.30545   1.00
H2       0.69214    0.37642    0.28619   1.00
H2       0.64272    0.41730    0.28089   1.00
C6       0.72894    0.42821    0.28863   1.00
C6       0.60558    0.36676    0.29135   1.00
H2       0.74208    0.44646    0.31126   1.00
H2       0.59117    0.35316    0.31635   1.00
C6       0.76041    0.42124    0.25626   1.00
C6       0.57589    0.36719    0.25663   1.00
H2       0.70551    0.44588    0.27616   1.00
H2       0.62954    0.34714    0.28377   1.00
C6       0.79765    0.40173    0.27306   1.00
C6       0.53792    0.38939    0.26736   1.00
C6       0.74426    0.39592    0.22247   1.00
C6       0.59393    0.38559    0.21948   1.00
C6       0.77255    0.46137    0.23908   1.00
C6       0.56446    0.32443    0.24691   1.00
H2       0.80942    0.41858    0.29742   1.00
H2       0.52480    0.37750    0.29386   1.00
H2       0.79170    0.37232    0.28351   1.00
H2       0.54346    0.42029    0.27223   1.00
H2       0.82041    0.39947    0.25090   1.00
H2       0.51637    0.38721    0.24402   1.00
H2       0.76545    0.39356    0.19881   1.00
H2       0.57402    0.38322    0.19473   1.00
H2       0.73775    0.36642    0.23244   1.00
H2       0.60006    0.41649    0.22390   1.00
H2       0.71755    0.40859    0.21065   1.00
H2       0.62115    0.37102    0.21176   1.00
H2       0.78458    0.48029    0.26172   1.00
H2       0.55117    0.31018    0.27212   1.00
H2       0.79475    0.45805    0.21646   1.00
H2       0.54351    0.32322    0.22294   1.00
H2       0.74761    0.47628    0.22604   1.00
H2       0.58998    0.30742    0.23832   1.00
C4       1.14525    0.41035    0.41386   1.00
C4       1.18691    0.40915    0.41485   1.00
C3       1.12397    0.41644    0.37866   1.00
C3       1.21004    0.40986    0.38031   1.00
C3       1.12354    0.40536    0.44915   1.00
C3       1.20670    0.40712    0.45153   1.00
C2       1.06095    0.41085    0.41151   1.00
C2       1.27122    0.40868    0.41689   1.00
C3       1.08311    0.41651    0.37741   1.00
C3       1.25091    0.40983    0.38122   1.00
C3       1.08196    0.40540    0.44659   1.00
C3       1.24836    0.40736    0.45121   1.00
H1       1.13737    0.42146    0.35267   1.00
H1       1.19806    0.41003    0.35316   1.00
C5       1.14335    0.40074    0.48573   1.00
C5       1.18498    0.40468    0.48722   1.00
H1       1.06951    0.42090    0.35107   1.00
H1       1.26591    0.41053    0.35528   1.00
H1       1.06552    0.40168    0.47101   1.00
H1       1.26348    0.40621    0.47671   1.00
C6       1.12015    0.39135    0.52214   1.00
C6       1.20619    0.40674    0.52593   1.00
H2       1.09845    0.36917    0.51520   1.00
H2       1.22810    0.42974    0.52455   1.00
H2       1.13786    0.37642    0.54381   1.00
H2       1.18728    0.41730    0.54911   1.00
C6       1.10106    0.42821    0.54137   1.00
C6       1.22442    0.36676    0.53865   1.00
H2       1.08792    0.44646    0.51874   1.00
H2       1.23883    0.35316    0.51365   1.00
C6       1.06959    0.42124    0.57374   1.00
C6       1.25411    0.36719    0.57337   1.00
H2       1.12449    0.44588    0.55384   1.00
H2       1.20046    0.34714    0.54623   1.00
C6       1.03235    0.40173    0.55694   1.00
C6       1.29208    0.38939    0.56264   1.00
C6       1.08574    0.39592    0.60753   1.00
C6       1.23607    0.38559    0.61052   1.00
C6       1.05745    0.46137    0.59092   1.00
C6       1.26554    0.32443    0.58309   1.00
H2       1.02058    0.41858    0.53258   1.00
H2       1.30520    0.37750    0.53614   1.00
H2       1.03830    0.37232    0.54649   1.00
H2       1.28654    0.42029    0.55777   1.00
H2       1.00959    0.39947    0.57910   1.00
H2       1.31363    0.38721    0.58598   1.00
H2       1.06455    0.39356    0.63119   1.00
H2       1.25598    0.38322    0.63527   1.00
H2       1.09225    0.36642    0.59756   1.00
H2       1.22994    0.41649    0.60610   1.00
H2       1.11245    0.40859    0.61935   1.00
H2       1.20885    0.37102    0.61824   1.00
H2       1.04542    0.48029    0.56828   1.00
H2       1.27883    0.31018    0.55788   1.00
H2       1.03525    0.45805    0.61354   1.00
H2       1.28649    0.32322    0.60706   1.00
H2       1.08239    0.47628    0.60396   1.00
H2       1.24002    0.30742    0.59168   1.00
C4       0.91614    0.18475    0.41035   1.00
C4       0.91515    0.14309    0.40915   1.00
C3       0.95134    0.20603    0.41644   1.00
C3       0.94969    0.11996    0.40986   1.00
C3       0.88085    0.20646    0.40536   1.00
C3       0.87847    0.12330    0.40712   1.00
C2       0.91849    0.26905    0.41085   1.00
C2       0.91311    0.05878    0.40868   1.00
C3       0.95259    0.24689    0.41651   1.00
C3       0.94878    0.07909    0.40983   1.00
C3       0.88341    0.24804    0.40540   1.00
C3       0.87879    0.08164    0.40736   1.00
H1       0.97733    0.19263    0.42146   1.00
H1       0.97684    0.13194    0.41003   1.00
C5       0.84427    0.18665    0.40074   1.00
C5       0.84278    0.14502    0.40468   1.00
H1       0.97893    0.26049    0.42090   1.00
H1       0.97472    0.06409    0.41053   1.00
H1       0.85899    0.26448    0.40168   1.00
H1       0.85329    0.06652    0.40621   1.00
C6       0.80786    0.20985    0.39135   1.00
C6       0.80407    0.12381    0.40674   1.00
H2       0.81480    0.23155    0.36917   1.00
H2       0.80545    0.10190    0.42974   1.00
H2       0.78619    0.19214    0.37642   1.00
H2       0.78089    0.14272    0.41730   1.00
C6       0.78863    0.22894    0.42821   1.00
C6       0.79135    0.10558    0.36676   1.00
H2       0.81126    0.24208    0.44646   1.00
H2       0.81635    0.09117    0.35316   1.00
C6       0.75626    0.26041    0.42124   1.00
C6       0.75663    0.07589    0.36719   1.00
H2       0.77616    0.20551    0.44588   1.00
H2       0.78377    0.12954    0.34714   1.00
C6       0.77306    0.29765    0.40173   1.00
C6       0.76736    0.03792    0.38939   1.00
C6       0.72247    0.24426    0.39592   1.00
C6       0.71948    0.09393    0.38559   1.00
C6       0.73908    0.27255    0.46137   1.00
C6       0.74691    0.06446    0.32443   1.00
H2       0.79742    0.30942    0.41858   1.00
H2       0.79386    0.02480    0.37750   1.00
H2       0.78351    0.29170    0.37232   1.00
H2       0.77223    0.04346    0.42029   1.00
H2       0.75090    0.32041    0.39947   1.00
H2       0.74402    0.01637    0.38721   1.00
H2       0.69881    0.26545    0.39356   1.00
H2       0.69473    0.07402    0.38322   1.00
H2       0.73244    0.23775    0.36642   1.00
H2       0.72390    0.10006    0.41649   1.00
H2       0.71065    0.21755    0.40859   1.00
H2       0.71176    0.12115    0.37102   1.00
H2       0.76172    0.28458    0.48029   1.00
H2       0.77212    0.05117    0.31018   1.00
H2       0.71646    0.29475    0.45805   1.00
H2       0.72294    0.04351    0.32322   1.00
H2       0.72604    0.24761    0.47628   1.00
H2       0.73832    0.08998    0.30742   1.00
C4       0.91035    0.41614    0.18475   1.00
C4       0.90915    0.41515    0.14309   1.00
C3       0.91644    0.45134    0.20603   1.00
C3       0.90986    0.44969    0.11996   1.00
C3       0.90536    0.38085    0.20646   1.00
C3       0.90712    0.37847    0.12330   1.00
C2       0.91085    0.41849    0.26905   1.00
C2       0.90868    0.41311    0.05878   1.00
C3       0.91651    0.45259    0.24689   1.00
C3       0.90983    0.44878    0.07909   1.00
C3       0.90540    0.38341    0.24804   1.00
C3       0.90736    0.37879    0.08164   1.00
H1       0.92146    0.47733    0.19263   1.00
H1       0.91003    0.47684    0.13194   1.00
C5       0.90074    0.34427    0.18665   1.00
C5       0.90468    0.34278    0.14502   1.00
H1       0.92090    0.47893    0.26049   1.00
H1       0.91053    0.47472    0.06409   1.00
H1       0.90168    0.35899    0.26448   1.00
H1       0.90621    0.35329    0.06652   1.00
C6       0.89135    0.30786    0.20985   1.00
C6       0.90674    0.30407    0.12381   1.00
H2       0.86917    0.31480    0.23155   1.00
H2       0.92974    0.30545    0.10190   1.00
H2       0.87642    0.28619    0.19214   1.00
H2       0.91730    0.28089    0.14272   1.00
C6       0.92821    0.28863    0.22894   1.00
C6       0.86676    0.29135    0.10558   1.00
H2       0.94646    0.31126    0.24208   1.00
H2       0.85316    0.31635    0.09117   1.00
C6       0.92124    0.25626    0.26041   1.00
C6       0.86719    0.25663    0.07589   1.00
H2       0.94588    0.27616    0.20551   1.00
H2       0.84714    0.28377    0.12954   1.00
C6       0.90173    0.27306    0.29765   1.00
C6       0.88939    0.26736    0.03792   1.00
C6       0.89592    0.22247    0.24426   1.00
C6       0.88559    0.21948    0.09393   1.00
C6       0.96137    0.23908    0.27255   1.00
C6       0.82443    0.24691    0.06446   1.00
H2       0.91858    0.29742    0.30942   1.00
H2       0.87750    0.29386    0.02480   1.00
H2       0.87232    0.28351    0.29170   1.00
H2       0.92029    0.27223    0.04346   1.00
H2       0.89947    0.25090    0.32041   1.00
H2       0.88721    0.24402    0.01637   1.00
H2       0.89356    0.19881    0.26545   1.00
H2       0.88322    0.19473    0.07402   1.00
H2       0.86642    0.23244    0.23775   1.00
H2       0.91649    0.22390    0.10006   1.00
H2       0.90859    0.21065    0.21755   1.00
H2       0.87102    0.21176    0.12115   1.00
H2       0.98029    0.26172    0.28458   1.00
H2       0.81018    0.27212    0.05117   1.00
H2       0.95805    0.21646    0.29475   1.00
H2       0.82322    0.22294    0.04351   1.00
H2       0.97628    0.22604    0.24761   1.00
H2       0.80742    0.23832    0.08998   1.00
