data_IRMOF10_SG202_interpen_Ligand3cp_label_r.

_audit_creation_method             'generated by an auxiliary program of Tobunporous'

_symmetry_space_group_name_H-M     'P 1'
_symmetry_Int_Tables_number        1
_symmetry_cell_setting             triclinic

_cell_length_a                    34.2800
_cell_length_b                    34.2800
_cell_length_c                    34.2800
_cell_angle_alpha                 90.0000
_cell_angle_beta                  90.0000
_cell_angle_gamma                 90.0000

loop_
_atom_site_label
_atom_site_fract_x
_atom_site_fract_y
_atom_site_fract_z
_atom_site_occupancy
O1       0.75000    0.75000    0.75000   1.00
Zn1      0.71720    0.78280    0.78280   1.00
Zn1      0.78280    0.71720    0.78280   1.00
Zn1      0.78280    0.78280    0.71720   1.00
Zn1      0.71720    0.71720    0.71720   1.00
O2       0.72650    0.77350    0.83820   1.00
O2       0.72650    0.83820    0.77350   1.00
O2       0.66180    0.77350    0.77350   1.00
O2       0.77350    0.72650    0.83820   1.00
O2       0.83820    0.72650    0.77350   1.00
O2       0.77350    0.66180    0.77350   1.00
O2       0.77350    0.83820    0.72650   1.00
O2       0.83820    0.77350    0.72650   1.00
O2       0.77350    0.77350    0.66180   1.00
O2       0.66180    0.72650    0.72650   1.00
O2       0.72650    0.66180    0.72650   1.00
O2       0.72650    0.72650    0.66180   1.00
C1       0.75000    0.75000    0.85520   1.00
C1       0.75000    0.85520    0.75000   1.00
C1       0.64480    0.75000    0.75000   1.00
C1       0.85520    0.75000    0.75000   1.00
C1       0.75000    0.64480    0.75000   1.00
C1       0.75000    0.75000    0.64480   1.00
O1       0.25000    0.25000    0.75000   1.00
Zn1      0.21720    0.28280    0.78280   1.00
Zn1      0.28280    0.21720    0.78280   1.00
Zn1      0.28280    0.28280    0.71720   1.00
Zn1      0.21720    0.21720    0.71720   1.00
O2       0.22650    0.27350    0.83820   1.00
O2       0.22650    0.33820    0.77350   1.00
O2       0.16180    0.27350    0.77350   1.00
O2       0.27350    0.22650    0.83820   1.00
O2       0.33820    0.22650    0.77350   1.00
O2       0.27350    0.16180    0.77350   1.00
O2       0.27350    0.33820    0.72650   1.00
O2       0.33820    0.27350    0.72650   1.00
O2       0.27350    0.27350    0.66180   1.00
O2       0.16180    0.22650    0.72650   1.00
O2       0.22650    0.16180    0.72650   1.00
O2       0.22650    0.22650    0.66180   1.00
C1       0.25000    0.25000    0.85520   1.00
C1       0.25000    0.35520    0.75000   1.00
C1       0.14480    0.25000    0.75000   1.00
C1       0.35520    0.25000    0.75000   1.00
C1       0.25000    0.14480    0.75000   1.00
C1       0.25000    0.25000    0.64480   1.00
O1       0.25000    0.75000    0.25000   1.00
Zn1      0.21720    0.78280    0.28280   1.00
Zn1      0.28280    0.71720    0.28280   1.00
Zn1      0.28280    0.78280    0.21720   1.00
Zn1      0.21720    0.71720    0.21720   1.00
O2       0.22650    0.77350    0.33820   1.00
O2       0.22650    0.83820    0.27350   1.00
O2       0.16180    0.77350    0.27350   1.00
O2       0.27350    0.72650    0.33820   1.00
O2       0.33820    0.72650    0.27350   1.00
O2       0.27350    0.66180    0.27350   1.00
O2       0.27350    0.83820    0.22650   1.00
O2       0.33820    0.77350    0.22650   1.00
O2       0.27350    0.77350    0.16180   1.00
O2       0.16180    0.72650    0.22650   1.00
O2       0.22650    0.66180    0.22650   1.00
O2       0.22650    0.72650    0.16180   1.00
C1       0.25000    0.75000    0.35520   1.00
C1       0.25000    0.85520    0.25000   1.00
C1       0.14480    0.75000    0.25000   1.00
C1       0.35520    0.75000    0.25000   1.00
C1       0.25000    0.64480    0.25000   1.00
C1       0.25000    0.75000    0.14480   1.00
O1       0.75000    0.25000    0.25000   1.00
Zn1      0.71720    0.28280    0.28280   1.00
Zn1      0.78280    0.21720    0.28280   1.00
Zn1      0.78280    0.28280    0.21720   1.00
Zn1      0.71720    0.21720    0.21720   1.00
O2       0.72650    0.27350    0.33820   1.00
O2       0.72650    0.33820    0.27350   1.00
O2       0.66180    0.27350    0.27350   1.00
O2       0.77350    0.22650    0.33820   1.00
O2       0.83820    0.22650    0.27350   1.00
O2       0.77350    0.16180    0.27350   1.00
O2       0.77350    0.33820    0.22650   1.00
O2       0.83820    0.27350    0.22650   1.00
O2       0.77350    0.27350    0.16180   1.00
O2       0.66180    0.22650    0.22650   1.00
O2       0.72650    0.16180    0.22650   1.00
O2       0.72650    0.22650    0.16180   1.00
C1       0.75000    0.25000    0.35520   1.00
C1       0.75000    0.35520    0.25000   1.00
C1       0.64480    0.25000    0.25000   1.00
C1       0.85520    0.25000    0.25000   1.00
C1       0.75000    0.14480    0.25000   1.00
C1       0.75000    0.25000    0.14480   1.00
O1       0.25000    0.25000    0.25000   1.00
Zn1      0.28280    0.21720    0.21720   1.00
Zn1      0.21720    0.28280    0.21720   1.00
Zn1      0.21720    0.21720    0.28280   1.00
Zn1      0.28280    0.28280    0.28280   1.00
O2       0.27350    0.22650    0.16180   1.00
O2       0.27350    0.16180    0.22650   1.00
O2       0.33820    0.22650    0.22650   1.00
O2       0.22650    0.27350    0.16180   1.00
O2       0.16180    0.27350    0.22650   1.00
O2       0.22650    0.33820    0.22650   1.00
O2       0.22650    0.16180    0.27350   1.00
O2       0.16180    0.22650    0.27350   1.00
O2       0.22650    0.22650    0.33820   1.00
O2       0.33820    0.27350    0.27350   1.00
O2       0.27350    0.33820    0.27350   1.00
O2       0.27350    0.27350    0.33820   1.00
C1       0.25000    0.25000    0.14480   1.00
C1       0.25000    0.14480    0.25000   1.00
C1       0.35520    0.25000    0.25000   1.00
C1       0.14480    0.25000    0.25000   1.00
C1       0.25000    0.35520    0.25000   1.00
C1       0.25000    0.25000    0.35520   1.00
O1       0.75000    0.75000    0.25000   1.00
Zn1      0.78280    0.71720    0.21720   1.00
Zn1      0.71720    0.78280    0.21720   1.00
Zn1      0.71720    0.71720    0.28280   1.00
Zn1      0.78280    0.78280    0.28280   1.00
O2       0.77350    0.72650    0.16180   1.00
O2       0.77350    0.66180    0.22650   1.00
O2       0.83820    0.72650    0.22650   1.00
O2       0.72650    0.77350    0.16180   1.00
O2       0.66180    0.77350    0.22650   1.00
O2       0.72650    0.83820    0.22650   1.00
O2       0.72650    0.66180    0.27350   1.00
O2       0.66180    0.72650    0.27350   1.00
O2       0.72650    0.72650    0.33820   1.00
O2       0.83820    0.77350    0.27350   1.00
O2       0.77350    0.83820    0.27350   1.00
O2       0.77350    0.77350    0.33820   1.00
C1       0.75000    0.75000    0.14480   1.00
C1       0.75000    0.64480    0.25000   1.00
C1       0.85520    0.75000    0.25000   1.00
C1       0.64480    0.75000    0.25000   1.00
C1       0.75000    0.85520    0.25000   1.00
C1       0.75000    0.75000    0.35520   1.00
O1       0.75000    0.25000    0.75000   1.00
Zn1      0.78280    0.21720    0.71720   1.00
Zn1      0.71720    0.28280    0.71720   1.00
Zn1      0.71720    0.21720    0.78280   1.00
Zn1      0.78280    0.28280    0.78280   1.00
O2       0.77350    0.22650    0.66180   1.00
O2       0.77350    0.16180    0.72650   1.00
O2       0.83820    0.22650    0.72650   1.00
O2       0.72650    0.27350    0.66180   1.00
O2       0.66180    0.27350    0.72650   1.00
O2       0.72650    0.33820    0.72650   1.00
O2       0.72650    0.16180    0.77350   1.00
O2       0.66180    0.22650    0.77350   1.00
O2       0.72650    0.22650    0.83820   1.00
O2       0.83820    0.27350    0.77350   1.00
O2       0.77350    0.33820    0.77350   1.00
O2       0.77350    0.27350    0.83820   1.00
C1       0.75000    0.25000    0.64480   1.00
C1       0.75000    0.14480    0.75000   1.00
C1       0.85520    0.25000    0.75000   1.00
C1       0.64480    0.25000    0.75000   1.00
C1       0.75000    0.35520    0.75000   1.00
C1       0.75000    0.25000    0.85520   1.00
O1       0.25000    0.75000    0.75000   1.00
Zn1      0.28280    0.71720    0.71720   1.00
Zn1      0.21720    0.78280    0.71720   1.00
Zn1      0.21720    0.71720    0.78280   1.00
Zn1      0.28280    0.78280    0.78280   1.00
O2       0.27350    0.72650    0.66180   1.00
O2       0.27350    0.66180    0.72650   1.00
O2       0.33820    0.72650    0.72650   1.00
O2       0.22650    0.77350    0.66180   1.00
O2       0.16180    0.77350    0.72650   1.00
O2       0.22650    0.83820    0.72650   1.00
O2       0.22650    0.66180    0.77350   1.00
O2       0.16180    0.72650    0.77350   1.00
O2       0.22650    0.72650    0.83820   1.00
O2       0.33820    0.77350    0.77350   1.00
O2       0.27350    0.83820    0.77350   1.00
O2       0.27350    0.77350    0.83820   1.00
C1       0.25000    0.75000    0.64480   1.00
C1       0.25000    0.64480    0.75000   1.00
C1       0.35520    0.75000    0.75000   1.00
C1       0.14480    0.75000    0.75000   1.00
C1       0.25000    0.85520    0.75000   1.00
C1       0.25000    0.75000    0.85520   1.00
O1       0.91500    0.91500    0.91500   1.00
Zn1      0.88220    0.94780    0.94780   1.00
Zn1      0.94780    0.88220    0.94780   1.00
Zn1      0.94780    0.94780    0.88220   1.00
Zn1      0.88220    0.88220    0.88220   1.00
O2       0.89150    0.93850    1.00320   1.00
O2       0.89150    1.00320    0.93850   1.00
O2       0.82680    0.93850    0.93850   1.00
O2       0.93850    0.89150    1.00320   1.00
O2       1.00320    0.89150    0.93850   1.00
O2       0.93850    0.82680    0.93850   1.00
O2       0.93850    1.00320    0.89150   1.00
O2       1.00320    0.93850    0.89150   1.00
O2       0.93850    0.93850    0.82680   1.00
O2       0.82680    0.89150    0.89150   1.00
O2       0.89150    0.82680    0.89150   1.00
O2       0.89150    0.89150    0.82680   1.00
C1       0.91500    0.91500    1.02020   1.00
C1       0.91500    1.02020    0.91500   1.00
C1       0.80980    0.91500    0.91500   1.00
C1       1.02020    0.91500    0.91500   1.00
C1       0.91500    0.80980    0.91500   1.00
C1       0.91500    0.91500    0.80980   1.00
O1       0.41500    0.41500    0.91500   1.00
Zn1      0.38220    0.44780    0.94780   1.00
Zn1      0.44780    0.38220    0.94780   1.00
Zn1      0.44780    0.44780    0.88220   1.00
Zn1      0.38220    0.38220    0.88220   1.00
O2       0.39150    0.43850    1.00320   1.00
O2       0.39150    0.50320    0.93850   1.00
O2       0.32680    0.43850    0.93850   1.00
O2       0.43850    0.39150    1.00320   1.00
O2       0.50320    0.39150    0.93850   1.00
O2       0.43850    0.32680    0.93850   1.00
O2       0.43850    0.50320    0.89150   1.00
O2       0.50320    0.43850    0.89150   1.00
O2       0.43850    0.43850    0.82680   1.00
O2       0.32680    0.39150    0.89150   1.00
O2       0.39150    0.32680    0.89150   1.00
O2       0.39150    0.39150    0.82680   1.00
C1       0.41500    0.41500    1.02020   1.00
C1       0.41500    0.52020    0.91500   1.00
C1       0.30980    0.41500    0.91500   1.00
C1       0.52020    0.41500    0.91500   1.00
C1       0.41500    0.30980    0.91500   1.00
C1       0.41500    0.41500    0.80980   1.00
O1       0.41500    0.91500    0.41500   1.00
Zn1      0.38220    0.94780    0.44780   1.00
Zn1      0.44780    0.88220    0.44780   1.00
Zn1      0.44780    0.94780    0.38220   1.00
Zn1      0.38220    0.88220    0.38220   1.00
O2       0.39150    0.93850    0.50320   1.00
O2       0.39150    1.00320    0.43850   1.00
O2       0.32680    0.93850    0.43850   1.00
O2       0.43850    0.89150    0.50320   1.00
O2       0.50320    0.89150    0.43850   1.00
O2       0.43850    0.82680    0.43850   1.00
O2       0.43850    1.00320    0.39150   1.00
O2       0.50320    0.93850    0.39150   1.00
O2       0.43850    0.93850    0.32680   1.00
O2       0.32680    0.89150    0.39150   1.00
O2       0.39150    0.82680    0.39150   1.00
O2       0.39150    0.89150    0.32680   1.00
C1       0.41500    0.91500    0.52020   1.00
C1       0.41500    1.02020    0.41500   1.00
C1       0.30980    0.91500    0.41500   1.00
C1       0.52020    0.91500    0.41500   1.00
C1       0.41500    0.80980    0.41500   1.00
C1       0.41500    0.91500    0.30980   1.00
O1       0.91500    0.41500    0.41500   1.00
Zn1      0.88220    0.44780    0.44780   1.00
Zn1      0.94780    0.38220    0.44780   1.00
Zn1      0.94780    0.44780    0.38220   1.00
Zn1      0.88220    0.38220    0.38220   1.00
O2       0.89150    0.43850    0.50320   1.00
O2       0.89150    0.50320    0.43850   1.00
O2       0.82680    0.43850    0.43850   1.00
O2       0.93850    0.39150    0.50320   1.00
O2       1.00320    0.39150    0.43850   1.00
O2       0.93850    0.32680    0.43850   1.00
O2       0.93850    0.50320    0.39150   1.00
O2       1.00320    0.43850    0.39150   1.00
O2       0.93850    0.43850    0.32680   1.00
O2       0.82680    0.39150    0.39150   1.00
O2       0.89150    0.32680    0.39150   1.00
O2       0.89150    0.39150    0.32680   1.00
C1       0.91500    0.41500    0.52020   1.00
C1       0.91500    0.52020    0.41500   1.00
C1       0.80980    0.41500    0.41500   1.00
C1       1.02020    0.41500    0.41500   1.00
C1       0.91500    0.30980    0.41500   1.00
C1       0.91500    0.41500    0.30980   1.00
O1       0.41500    0.41500    0.41500   1.00
Zn1      0.44780    0.38220    0.38220   1.00
Zn1      0.38220    0.44780    0.38220   1.00
Zn1      0.38220    0.38220    0.44780   1.00
Zn1      0.44780    0.44780    0.44780   1.00
O2       0.43850    0.39150    0.32680   1.00
O2       0.43850    0.32680    0.39150   1.00
O2       0.50320    0.39150    0.39150   1.00
O2       0.39150    0.43850    0.32680   1.00
O2       0.32680    0.43850    0.39150   1.00
O2       0.39150    0.50320    0.39150   1.00
O2       0.39150    0.32680    0.43850   1.00
O2       0.32680    0.39150    0.43850   1.00
O2       0.39150    0.39150    0.50320   1.00
O2       0.50320    0.43850    0.43850   1.00
O2       0.43850    0.50320    0.43850   1.00
O2       0.43850    0.43850    0.50320   1.00
C1       0.41500    0.41500    0.30980   1.00
C1       0.41500    0.30980    0.41500   1.00
C1       0.52020    0.41500    0.41500   1.00
C1       0.30980    0.41500    0.41500   1.00
C1       0.41500    0.52020    0.41500   1.00
C1       0.41500    0.41500    0.52020   1.00
O1       0.91500    0.91500    0.41500   1.00
Zn1      0.94780    0.88220    0.38220   1.00
Zn1      0.88220    0.94780    0.38220   1.00
Zn1      0.88220    0.88220    0.44780   1.00
Zn1      0.94780    0.94780    0.44780   1.00
O2       0.93850    0.89150    0.32680   1.00
O2       0.93850    0.82680    0.39150   1.00
O2       1.00320    0.89150    0.39150   1.00
O2       0.89150    0.93850    0.32680   1.00
O2       0.82680    0.93850    0.39150   1.00
O2       0.89150    1.00320    0.39150   1.00
O2       0.89150    0.82680    0.43850   1.00
O2       0.82680    0.89150    0.43850   1.00
O2       0.89150    0.89150    0.50320   1.00
O2       1.00320    0.93850    0.43850   1.00
O2       0.93850    1.00320    0.43850   1.00
O2       0.93850    0.93850    0.50320   1.00
C1       0.91500    0.91500    0.30980   1.00
C1       0.91500    0.80980    0.41500   1.00
C1       1.02020    0.91500    0.41500   1.00
C1       0.80980    0.91500    0.41500   1.00
C1       0.91500    1.02020    0.41500   1.00
C1       0.91500    0.91500    0.52020   1.00
O1       0.91500    0.41500    0.91500   1.00
Zn1      0.94780    0.38220    0.88220   1.00
Zn1      0.88220    0.44780    0.88220   1.00
Zn1      0.88220    0.38220    0.94780   1.00
Zn1      0.94780    0.44780    0.94780   1.00
O2       0.93850    0.39150    0.82680   1.00
O2       0.93850    0.32680    0.89150   1.00
O2       1.00320    0.39150    0.89150   1.00
O2       0.89150    0.43850    0.82680   1.00
O2       0.82680    0.43850    0.89150   1.00
O2       0.89150    0.50320    0.89150   1.00
O2       0.89150    0.32680    0.93850   1.00
O2       0.82680    0.39150    0.93850   1.00
O2       0.89150    0.39150    1.00320   1.00
O2       1.00320    0.43850    0.93850   1.00
O2       0.93850    0.50320    0.93850   1.00
O2       0.93850    0.43850    1.00320   1.00
C1       0.91500    0.41500    0.80980   1.00
C1       0.91500    0.30980    0.91500   1.00
C1       1.02020    0.41500    0.91500   1.00
C1       0.80980    0.41500    0.91500   1.00
C1       0.91500    0.52020    0.91500   1.00
C1       0.91500    0.41500    1.02020   1.00
O1       0.41500    0.91500    0.91500   1.00
Zn1      0.44780    0.88220    0.88220   1.00
Zn1      0.38220    0.94780    0.88220   1.00
Zn1      0.38220    0.88220    0.94780   1.00
Zn1      0.44780    0.94780    0.94780   1.00
O2       0.43850    0.89150    0.82680   1.00
O2       0.43850    0.82680    0.89150   1.00
O2       0.50320    0.89150    0.89150   1.00
O2       0.39150    0.93850    0.82680   1.00
O2       0.32680    0.93850    0.89150   1.00
O2       0.39150    1.00320    0.89150   1.00
O2       0.39150    0.82680    0.93850   1.00
O2       0.32680    0.89150    0.93850   1.00
O2       0.39150    0.89150    1.00320   1.00
O2       0.50320    0.93850    0.93850   1.00
O2       0.43850    1.00320    0.93850   1.00
O2       0.43850    0.93850    1.00320   1.00
C1       0.41500    0.91500    0.80980   1.00
C1       0.41500    0.80980    0.91500   1.00
C1       0.52020    0.91500    0.91500   1.00
C1       0.30980    0.91500    0.91500   1.00
C1       0.41500    1.02020    0.91500   1.00
C1       0.41500    0.91500    1.02020   1.00
C4       0.74719    0.74883    1.02084   1.00
C4       0.74745    0.74951    0.97912   1.00
C3       0.71310    0.75471    1.04364   1.00
C3       0.71447    0.75963    0.95616   1.00
C3       0.78296    0.74253    1.04123   1.00
C3       0.78244    0.73947    0.95886   1.00
C2       0.74943    0.74895    1.10512   1.00
C2       0.75057    0.75105    0.89488   1.00
C3       0.71419    0.75500    1.08462   1.00
C3       0.71586    0.76004    0.91519   1.00
C3       0.78333    0.74219    1.08258   1.00
C3       0.78369    0.74168    0.91762   1.00
H1       0.68645    0.75883    1.03115   1.00
H1       0.68854    0.76725    0.96852   1.00
C5       0.81811    0.73643    1.02020   1.00
C5       0.81608    0.72762    0.97980   1.00
H1       0.68866    0.75969    1.09955   1.00
H1       0.69101    0.76726    0.90010   1.00
H1       0.80900    0.73656    1.09680   1.00
H1       0.80962    0.73683    0.90368   1.00
O3       0.85332    0.73688    1.03961   1.00
O3       0.84739    0.71052    0.96099   1.00
Si1      0.87830    0.77736    1.04247   1.00
Si1      0.84647    0.66362    0.95279   1.00
C6       0.91413    0.76043    1.07538   1.00
C6       0.89841    0.78635    0.99598   1.00
C6       0.85145    0.81649    1.06253   1.00
C6       0.80449    0.63717    0.96693   1.00
C6       0.85223    0.66058    0.90198   1.00
C6       0.88836    0.64351    0.97477   1.00
C6       0.89855    0.73776    1.11194   1.00
H2       0.92955    0.73869    1.05791   1.00
C6       0.94656    0.78851    1.09147   1.00
H2       0.89967    0.75705    0.98358   1.00
C6       0.87428    0.81133    0.96634   1.00
C6       0.94101    0.80261    0.99336   1.00
H2       0.83829    0.80308    1.08831   1.00
C6       0.87513    0.85254    1.07772   1.00
C6       0.81705    0.83501    1.03849   1.00
C6       0.79173    0.63894    1.01071   1.00
C6       0.76618    0.64079    0.94225   1.00
H2       0.81359    0.60703    0.96212   1.00
H2       0.82470    0.67173    0.89051   1.00
C6       0.88461    0.68721    0.88378   1.00
C6       0.85786    0.61905    0.88393   1.00
H2       0.91161    0.64922    0.95375   1.00
C6       0.90231    0.66315    1.01336   1.00
C6       0.88911    0.59846    0.98244   1.00
H2       0.88019    0.71312    1.10346   1.00
H2       0.88137    0.75680    1.13090   1.00
H2       0.92257    0.72575    1.12917   1.00
H2       0.97369    0.77235    1.09608   1.00
H2       0.95303    0.81252    1.07178   1.00
H2       0.93870    0.80117    1.11964   1.00
H2       0.88564    0.80779    0.93672   1.00
H2       0.84380    0.80250    0.96532   1.00
H2       0.87572    0.84233    0.97352   1.00
H2       0.96163    0.78374    1.00862   1.00
H2       0.95104    0.80404    0.96308   1.00
H2       0.94287    0.83202    1.00550   1.00
H2       0.89455    0.86388    1.05514   1.00
H2       0.85605    0.87637    1.08708   1.00
H2       0.89229    0.84512    1.10332   1.00
H2       0.82712    0.85812    1.01902   1.00
H2       0.80140    0.81411    1.02068   1.00
H2       0.79567    0.84808    1.05828   1.00
H2       0.77439    0.66485    1.01688   1.00
H2       0.77368    0.61368    1.01809   1.00
H2       0.81658    0.63867    1.03048   1.00
H2       0.74489    0.61877    0.95125   1.00
H2       0.75222    0.66908    0.94574   1.00
H2       0.77138    0.63599    0.91122   1.00
H2       0.88155    0.68835    0.85202   1.00
H2       0.88232    0.71721    0.89435   1.00
H2       0.91389    0.67657    0.89035   1.00
H2       0.83567    0.59864    0.89416   1.00
H2       0.85537    0.62031    0.85212   1.00
H2       0.88660    0.60714    0.89085   1.00
H2       0.88067    0.66073    1.03656   1.00
H2       0.92963    0.65048    1.02381   1.00
H2       0.90773    0.69395    1.00834   1.00
H2       0.91846    0.58881    0.99044   1.00
H2       0.86947    0.59035    1.00622   1.00
H2       0.88077    0.58194    0.95657   1.00
C4       0.74883    1.02084    0.74719   1.00
C4       0.74951    0.97912    0.74745   1.00
C3       0.75471    1.04364    0.71310   1.00
C3       0.75963    0.95616    0.71447   1.00
C3       0.74253    1.04123    0.78296   1.00
C3       0.73947    0.95886    0.78244   1.00
C2       0.74895    1.10512    0.74943   1.00
C2       0.75105    0.89488    0.75057   1.00
C3       0.75500    1.08462    0.71419   1.00
C3       0.76004    0.91519    0.71586   1.00
C3       0.74219    1.08258    0.78333   1.00
C3       0.74168    0.91762    0.78369   1.00
H1       0.75883    1.03115    0.68645   1.00
H1       0.76725    0.96852    0.68854   1.00
C5       0.73643    1.02020    0.81811   1.00
C5       0.72762    0.97980    0.81608   1.00
H1       0.75969    1.09955    0.68866   1.00
H1       0.76726    0.90010    0.69101   1.00
H1       0.73656    1.09680    0.80900   1.00
H1       0.73683    0.90368    0.80962   1.00
O3       0.73688    1.03961    0.85332   1.00
O3       0.71052    0.96099    0.84739   1.00
Si1      0.77736    1.04247    0.87830   1.00
Si1      0.66362    0.95279    0.84647   1.00
C6       0.76043    1.07538    0.91413   1.00
C6       0.78635    0.99598    0.89841   1.00
C6       0.81649    1.06253    0.85145   1.00
C6       0.63717    0.96693    0.80449   1.00
C6       0.66058    0.90198    0.85223   1.00
C6       0.64351    0.97477    0.88836   1.00
C6       0.73776    1.11194    0.89855   1.00
H2       0.73869    1.05791    0.92955   1.00
C6       0.78851    1.09147    0.94656   1.00
H2       0.75705    0.98358    0.89967   1.00
C6       0.81133    0.96634    0.87428   1.00
C6       0.80261    0.99336    0.94101   1.00
H2       0.80308    1.08831    0.83829   1.00
C6       0.85254    1.07772    0.87513   1.00
C6       0.83501    1.03849    0.81705   1.00
C6       0.63894    1.01071    0.79173   1.00
C6       0.64079    0.94225    0.76618   1.00
H2       0.60703    0.96212    0.81359   1.00
H2       0.67173    0.89051    0.82470   1.00
C6       0.68721    0.88378    0.88461   1.00
C6       0.61905    0.88393    0.85786   1.00
H2       0.64922    0.95375    0.91161   1.00
C6       0.66315    1.01336    0.90231   1.00
C6       0.59846    0.98244    0.88911   1.00
H2       0.71312    1.10346    0.88019   1.00
H2       0.75680    1.13090    0.88137   1.00
H2       0.72575    1.12917    0.92257   1.00
H2       0.77235    1.09608    0.97369   1.00
H2       0.81252    1.07178    0.95303   1.00
H2       0.80117    1.11964    0.93870   1.00
H2       0.80779    0.93672    0.88564   1.00
H2       0.80250    0.96532    0.84380   1.00
H2       0.84233    0.97352    0.87572   1.00
H2       0.78374    1.00862    0.96163   1.00
H2       0.80404    0.96308    0.95104   1.00
H2       0.83202    1.00550    0.94287   1.00
H2       0.86388    1.05514    0.89455   1.00
H2       0.87637    1.08708    0.85605   1.00
H2       0.84512    1.10332    0.89229   1.00
H2       0.85812    1.01902    0.82712   1.00
H2       0.81411    1.02068    0.80140   1.00
H2       0.84808    1.05828    0.79567   1.00
H2       0.66485    1.01688    0.77439   1.00
H2       0.61368    1.01809    0.77368   1.00
H2       0.63867    1.03048    0.81658   1.00
H2       0.61877    0.95125    0.74489   1.00
H2       0.66908    0.94574    0.75222   1.00
H2       0.63599    0.91122    0.77138   1.00
H2       0.68835    0.85202    0.88155   1.00
H2       0.71721    0.89435    0.88232   1.00
H2       0.67657    0.89035    0.91389   1.00
H2       0.59864    0.89416    0.83567   1.00
H2       0.62031    0.85212    0.85537   1.00
H2       0.60714    0.89085    0.88660   1.00
H2       0.66073    1.03656    0.88067   1.00
H2       0.65048    1.02381    0.92963   1.00
H2       0.69395    1.00834    0.90773   1.00
H2       0.58881    0.99044    0.91846   1.00
H2       0.59035    1.00622    0.86947   1.00
H2       0.58194    0.95657    0.88077   1.00
C4       0.47916    0.74719    0.75117   1.00
C4       0.52088    0.74745    0.75049   1.00
C3       0.45636    0.71310    0.74529   1.00
C3       0.54384    0.71447    0.74037   1.00
C3       0.45877    0.78296    0.75747   1.00
C3       0.54114    0.78244    0.76053   1.00
C2       0.39488    0.74943    0.75105   1.00
C2       0.60512    0.75057    0.74895   1.00
C3       0.41538    0.71419    0.74500   1.00
C3       0.58481    0.71586    0.73996   1.00
C3       0.41742    0.78333    0.75781   1.00
C3       0.58238    0.78369    0.75832   1.00
H1       0.46885    0.68645    0.74117   1.00
H1       0.53148    0.68854    0.73275   1.00
C5       0.47980    0.81811    0.76357   1.00
C5       0.52020    0.81608    0.77238   1.00
H1       0.40045    0.68866    0.74031   1.00
H1       0.59990    0.69101    0.73274   1.00
H1       0.40320    0.80900    0.76344   1.00
H1       0.59632    0.80962    0.76317   1.00
O3       0.46039    0.85332    0.76312   1.00
O3       0.53901    0.84739    0.78948   1.00
Si1      0.45753    0.87830    0.72264   1.00
Si1      0.54721    0.84647    0.83638   1.00
C6       0.42462    0.91413    0.73957   1.00
C6       0.50402    0.89841    0.71365   1.00
C6       0.43747    0.85145    0.68351   1.00
C6       0.53307    0.80449    0.86283   1.00
C6       0.59802    0.85223    0.83942   1.00
C6       0.52523    0.88836    0.85649   1.00
C6       0.38806    0.89855    0.76224   1.00
H2       0.44209    0.92955    0.76131   1.00
C6       0.40853    0.94656    0.71149   1.00
H2       0.51642    0.89967    0.74295   1.00
C6       0.53366    0.87428    0.68867   1.00
C6       0.50664    0.94101    0.69739   1.00
H2       0.41169    0.83829    0.69692   1.00
C6       0.42228    0.87513    0.64746   1.00
C6       0.46151    0.81705    0.66499   1.00
C6       0.48929    0.79173    0.86106   1.00
C6       0.55775    0.76618    0.85921   1.00
H2       0.53788    0.81359    0.89297   1.00
H2       0.60949    0.82470    0.82827   1.00
C6       0.61622    0.88461    0.81279   1.00
C6       0.61607    0.85786    0.88095   1.00
H2       0.54625    0.91161    0.85078   1.00
C6       0.48664    0.90231    0.83685   1.00
C6       0.51756    0.88911    0.90154   1.00
H2       0.39654    0.88019    0.78688   1.00
H2       0.36910    0.88137    0.74320   1.00
H2       0.37083    0.92257    0.77425   1.00
H2       0.40392    0.97369    0.72765   1.00
H2       0.42822    0.95303    0.68748   1.00
H2       0.38036    0.93870    0.69883   1.00
H2       0.56328    0.88564    0.69221   1.00
H2       0.53468    0.84380    0.69750   1.00
H2       0.52648    0.87572    0.65767   1.00
H2       0.49138    0.96163    0.71626   1.00
H2       0.53692    0.95104    0.69596   1.00
H2       0.49450    0.94287    0.66798   1.00
H2       0.44486    0.89455    0.63612   1.00
H2       0.41292    0.85605    0.62363   1.00
H2       0.39668    0.89229    0.65488   1.00
H2       0.48098    0.82712    0.64188   1.00
H2       0.47932    0.80140    0.68589   1.00
H2       0.44172    0.79567    0.65192   1.00
H2       0.48312    0.77439    0.83515   1.00
H2       0.48191    0.77368    0.88632   1.00
H2       0.46952    0.81658    0.86133   1.00
H2       0.54875    0.74489    0.88123   1.00
H2       0.55426    0.75222    0.83092   1.00
H2       0.58878    0.77138    0.86401   1.00
H2       0.64798    0.88155    0.81165   1.00
H2       0.60565    0.88232    0.78279   1.00
H2       0.60965    0.91389    0.82343   1.00
H2       0.60584    0.83567    0.90136   1.00
H2       0.64788    0.85537    0.87969   1.00
H2       0.60915    0.88660    0.89286   1.00
H2       0.46344    0.88067    0.83927   1.00
H2       0.47619    0.92963    0.84952   1.00
H2       0.49166    0.90773    0.80605   1.00
H2       0.50956    0.91846    0.91119   1.00
H2       0.49378    0.86947    0.90965   1.00
H2       0.54343    0.88077    0.91806   1.00
C4       1.02084    0.74719    0.74883   1.00
C4       0.97912    0.74745    0.74951   1.00
C3       1.04364    0.71310    0.75471   1.00
C3       0.95616    0.71447    0.75963   1.00
C3       1.04123    0.78296    0.74253   1.00
C3       0.95886    0.78244    0.73947   1.00
C2       1.10512    0.74943    0.74895   1.00
C2       0.89488    0.75057    0.75105   1.00
C3       1.08462    0.71419    0.75500   1.00
C3       0.91519    0.71586    0.76004   1.00
C3       1.08258    0.78333    0.74219   1.00
C3       0.91762    0.78369    0.74168   1.00
H1       1.03115    0.68645    0.75883   1.00
H1       0.96852    0.68854    0.76725   1.00
C5       1.02020    0.81811    0.73643   1.00
C5       0.97980    0.81608    0.72762   1.00
H1       1.09955    0.68866    0.75969   1.00
H1       0.90010    0.69101    0.76726   1.00
H1       1.09680    0.80900    0.73656   1.00
H1       0.90368    0.80962    0.73683   1.00
O3       1.03961    0.85332    0.73688   1.00
O3       0.96099    0.84739    0.71052   1.00
Si1      1.04247    0.87830    0.77736   1.00
Si1      0.95279    0.84647    0.66362   1.00
C6       1.07538    0.91413    0.76043   1.00
C6       0.99598    0.89841    0.78635   1.00
C6       1.06253    0.85145    0.81649   1.00
C6       0.96693    0.80449    0.63717   1.00
C6       0.90198    0.85223    0.66058   1.00
C6       0.97477    0.88836    0.64351   1.00
C6       1.11194    0.89855    0.73776   1.00
H2       1.05791    0.92955    0.73869   1.00
C6       1.09147    0.94656    0.78851   1.00
H2       0.98358    0.89967    0.75705   1.00
C6       0.96634    0.87428    0.81133   1.00
C6       0.99336    0.94101    0.80261   1.00
H2       1.08831    0.83829    0.80308   1.00
C6       1.07772    0.87513    0.85254   1.00
C6       1.03849    0.81705    0.83501   1.00
C6       1.01071    0.79173    0.63894   1.00
C6       0.94225    0.76618    0.64079   1.00
H2       0.96212    0.81359    0.60703   1.00
H2       0.89051    0.82470    0.67173   1.00
C6       0.88378    0.88461    0.68721   1.00
C6       0.88393    0.85786    0.61905   1.00
H2       0.95375    0.91161    0.64922   1.00
C6       1.01336    0.90231    0.66315   1.00
C6       0.98244    0.88911    0.59846   1.00
H2       1.10346    0.88019    0.71312   1.00
H2       1.13090    0.88137    0.75680   1.00
H2       1.12917    0.92257    0.72575   1.00
H2       1.09608    0.97369    0.77235   1.00
H2       1.07178    0.95303    0.81252   1.00
H2       1.11964    0.93870    0.80117   1.00
H2       0.93672    0.88564    0.80779   1.00
H2       0.96532    0.84380    0.80250   1.00
H2       0.97352    0.87572    0.84233   1.00
H2       1.00862    0.96163    0.78374   1.00
H2       0.96308    0.95104    0.80404   1.00
H2       1.00550    0.94287    0.83202   1.00
H2       1.05514    0.89455    0.86388   1.00
H2       1.08708    0.85605    0.87637   1.00
H2       1.10332    0.89229    0.84512   1.00
H2       1.01902    0.82712    0.85812   1.00
H2       1.02068    0.80140    0.81411   1.00
H2       1.05828    0.79567    0.84808   1.00
H2       1.01688    0.77439    0.66485   1.00
H2       1.01809    0.77368    0.61368   1.00
H2       1.03048    0.81658    0.63867   1.00
H2       0.95125    0.74489    0.61877   1.00
H2       0.94574    0.75222    0.66908   1.00
H2       0.91122    0.77138    0.63599   1.00
H2       0.85202    0.88155    0.68835   1.00
H2       0.89435    0.88232    0.71721   1.00
H2       0.89035    0.91389    0.67657   1.00
H2       0.89416    0.83567    0.59864   1.00
H2       0.85212    0.85537    0.62031   1.00
H2       0.89085    0.88660    0.60714   1.00
H2       1.03656    0.88067    0.66073   1.00
H2       1.02381    0.92963    0.65048   1.00
H2       1.00834    0.90773    0.69395   1.00
H2       0.99044    0.91846    0.58881   1.00
H2       1.00622    0.86947    0.59035   1.00
H2       0.95657    0.88077    0.58194   1.00
C4       0.75117    0.47916    0.74719   1.00
C4       0.75049    0.52088    0.74745   1.00
C3       0.74529    0.45636    0.71310   1.00
C3       0.74037    0.54384    0.71447   1.00
C3       0.75747    0.45877    0.78296   1.00
C3       0.76053    0.54114    0.78244   1.00
C2       0.75105    0.39488    0.74943   1.00
C2       0.74895    0.60512    0.75057   1.00
C3       0.74500    0.41538    0.71419   1.00
C3       0.73996    0.58481    0.71586   1.00
C3       0.75781    0.41742    0.78333   1.00
C3       0.75832    0.58238    0.78369   1.00
H1       0.74117    0.46885    0.68645   1.00
H1       0.73275    0.53148    0.68854   1.00
C5       0.76357    0.47980    0.81811   1.00
C5       0.77238    0.52020    0.81608   1.00
H1       0.74031    0.40045    0.68866   1.00
H1       0.73274    0.59990    0.69101   1.00
H1       0.76344    0.40320    0.80900   1.00
H1       0.76317    0.59632    0.80962   1.00
O3       0.76312    0.46039    0.85332   1.00
O3       0.78948    0.53901    0.84739   1.00
Si1      0.72264    0.45753    0.87830   1.00
Si1      0.83638    0.54721    0.84647   1.00
C6       0.73957    0.42462    0.91413   1.00
C6       0.71365    0.50402    0.89841   1.00
C6       0.68351    0.43747    0.85145   1.00
C6       0.86283    0.53307    0.80449   1.00
C6       0.83942    0.59802    0.85223   1.00
C6       0.85649    0.52523    0.88836   1.00
C6       0.76224    0.38806    0.89855   1.00
H2       0.76131    0.44209    0.92955   1.00
C6       0.71149    0.40853    0.94656   1.00
H2       0.74295    0.51642    0.89967   1.00
C6       0.68867    0.53366    0.87428   1.00
C6       0.69739    0.50664    0.94101   1.00
H2       0.69692    0.41169    0.83829   1.00
C6       0.64746    0.42228    0.87513   1.00
C6       0.66499    0.46151    0.81705   1.00
C6       0.86106    0.48929    0.79173   1.00
C6       0.85921    0.55775    0.76618   1.00
H2       0.89297    0.53788    0.81359   1.00
H2       0.82827    0.60949    0.82470   1.00
C6       0.81279    0.61622    0.88461   1.00
C6       0.88095    0.61607    0.85786   1.00
H2       0.85078    0.54625    0.91161   1.00
C6       0.83685    0.48664    0.90231   1.00
C6       0.90154    0.51756    0.88911   1.00
H2       0.78688    0.39654    0.88019   1.00
H2       0.74320    0.36910    0.88137   1.00
H2       0.77425    0.37083    0.92257   1.00
H2       0.72765    0.40392    0.97369   1.00
H2       0.68748    0.42822    0.95303   1.00
H2       0.69883    0.38036    0.93870   1.00
H2       0.69221    0.56328    0.88564   1.00
H2       0.69750    0.53468    0.84380   1.00
H2       0.65767    0.52648    0.87572   1.00
H2       0.71626    0.49138    0.96163   1.00
H2       0.69596    0.53692    0.95104   1.00
H2       0.66798    0.49450    0.94287   1.00
H2       0.63612    0.44486    0.89455   1.00
H2       0.62363    0.41292    0.85605   1.00
H2       0.65488    0.39668    0.89229   1.00
H2       0.64188    0.48098    0.82712   1.00
H2       0.68589    0.47932    0.80140   1.00
H2       0.65192    0.44172    0.79567   1.00
H2       0.83515    0.48312    0.77439   1.00
H2       0.88632    0.48191    0.77368   1.00
H2       0.86133    0.46952    0.81658   1.00
H2       0.88123    0.54875    0.74489   1.00
H2       0.83092    0.55426    0.75222   1.00
H2       0.86401    0.58878    0.77138   1.00
H2       0.81165    0.64798    0.88155   1.00
H2       0.78279    0.60565    0.88232   1.00
H2       0.82343    0.60965    0.91389   1.00
H2       0.90136    0.60584    0.83567   1.00
H2       0.87969    0.64788    0.85537   1.00
H2       0.89286    0.60915    0.88660   1.00
H2       0.83927    0.46344    0.88067   1.00
H2       0.84952    0.47619    0.92963   1.00
H2       0.80605    0.49166    0.90773   1.00
H2       0.91119    0.50956    0.91846   1.00
H2       0.90965    0.49378    0.86947   1.00
H2       0.91806    0.54343    0.88077   1.00
C4       0.74719    0.75117    0.47916   1.00
C4       0.74745    0.75049    0.52088   1.00
C3       0.71310    0.74529    0.45636   1.00
C3       0.71447    0.74037    0.54384   1.00
C3       0.78296    0.75747    0.45877   1.00
C3       0.78244    0.76053    0.54114   1.00
C2       0.74943    0.75105    0.39488   1.00
C2       0.75057    0.74895    0.60512   1.00
C3       0.71419    0.74500    0.41538   1.00
C3       0.71586    0.73996    0.58481   1.00
C3       0.78333    0.75781    0.41742   1.00
C3       0.78369    0.75832    0.58238   1.00
H1       0.68645    0.74117    0.46885   1.00
H1       0.68854    0.73275    0.53148   1.00
C5       0.81811    0.76357    0.47980   1.00
C5       0.81608    0.77238    0.52020   1.00
H1       0.68866    0.74031    0.40045   1.00
H1       0.69101    0.73274    0.59990   1.00
H1       0.80900    0.76344    0.40320   1.00
H1       0.80962    0.76317    0.59632   1.00
O3       0.85332    0.76312    0.46039   1.00
O3       0.84739    0.78948    0.53901   1.00
Si1      0.87830    0.72264    0.45753   1.00
Si1      0.84647    0.83638    0.54721   1.00
C6       0.91413    0.73957    0.42462   1.00
C6       0.89841    0.71365    0.50402   1.00
C6       0.85145    0.68351    0.43747   1.00
C6       0.80449    0.86283    0.53307   1.00
C6       0.85223    0.83942    0.59802   1.00
C6       0.88836    0.85649    0.52523   1.00
C6       0.89855    0.76224    0.38806   1.00
H2       0.92955    0.76131    0.44209   1.00
C6       0.94656    0.71149    0.40853   1.00
H2       0.89967    0.74295    0.51642   1.00
C6       0.87428    0.68867    0.53366   1.00
C6       0.94101    0.69739    0.50664   1.00
H2       0.83829    0.69692    0.41169   1.00
C6       0.87513    0.64746    0.42228   1.00
C6       0.81705    0.66499    0.46151   1.00
C6       0.79173    0.86106    0.48929   1.00
C6       0.76618    0.85921    0.55775   1.00
H2       0.81359    0.89297    0.53788   1.00
H2       0.82470    0.82827    0.60949   1.00
C6       0.88461    0.81279    0.61622   1.00
C6       0.85786    0.88095    0.61607   1.00
H2       0.91161    0.85078    0.54625   1.00
C6       0.90231    0.83685    0.48664   1.00
C6       0.88911    0.90154    0.51756   1.00
H2       0.88019    0.78688    0.39654   1.00
H2       0.88137    0.74320    0.36910   1.00
H2       0.92257    0.77425    0.37083   1.00
H2       0.97369    0.72765    0.40392   1.00
H2       0.95303    0.68748    0.42822   1.00
H2       0.93870    0.69883    0.38036   1.00
H2       0.88564    0.69221    0.56328   1.00
H2       0.84380    0.69750    0.53468   1.00
H2       0.87572    0.65767    0.52648   1.00
H2       0.96163    0.71626    0.49138   1.00
H2       0.95104    0.69596    0.53692   1.00
H2       0.94287    0.66798    0.49450   1.00
H2       0.89455    0.63612    0.44486   1.00
H2       0.85605    0.62363    0.41292   1.00
H2       0.89229    0.65488    0.39668   1.00
H2       0.82712    0.64188    0.48098   1.00
H2       0.80140    0.68589    0.47932   1.00
H2       0.79567    0.65192    0.44172   1.00
H2       0.77439    0.83515    0.48312   1.00
H2       0.77368    0.88632    0.48191   1.00
H2       0.81658    0.86133    0.46952   1.00
H2       0.74489    0.88123    0.54875   1.00
H2       0.75222    0.83092    0.55426   1.00
H2       0.77138    0.86401    0.58878   1.00
H2       0.88155    0.81165    0.64798   1.00
H2       0.88232    0.78279    0.60565   1.00
H2       0.91389    0.82343    0.60965   1.00
H2       0.83567    0.90136    0.60584   1.00
H2       0.85537    0.87969    0.64788   1.00
H2       0.88660    0.89286    0.60915   1.00
H2       0.88067    0.83927    0.46344   1.00
H2       0.92963    0.84952    0.47619   1.00
H2       0.90773    0.80605    0.49166   1.00
H2       0.91846    0.91119    0.50956   1.00
H2       0.86947    0.90965    0.49378   1.00
H2       0.88077    0.91806    0.54343   1.00
C4       0.24719    0.24883    1.02084   1.00
C4       0.24745    0.24951    0.97912   1.00
C3       0.21310    0.25471    1.04364   1.00
C3       0.21447    0.25963    0.95616   1.00
C3       0.28296    0.24253    1.04123   1.00
C3       0.28244    0.23947    0.95886   1.00
C2       0.24943    0.24895    1.10512   1.00
C2       0.25057    0.25105    0.89488   1.00
C3       0.21419    0.25500    1.08462   1.00
C3       0.21586    0.26004    0.91519   1.00
C3       0.28333    0.24219    1.08258   1.00
C3       0.28369    0.24168    0.91762   1.00
H1       0.18645    0.25883    1.03115   1.00
H1       0.18854    0.26725    0.96852   1.00
C5       0.31811    0.23643    1.02020   1.00
C5       0.31608    0.22762    0.97980   1.00
H1       0.18866    0.25969    1.09955   1.00
H1       0.19101    0.26726    0.90010   1.00
H1       0.30900    0.23656    1.09680   1.00
H1       0.30962    0.23683    0.90368   1.00
O3       0.35332    0.23688    1.03961   1.00
O3       0.34739    0.21052    0.96099   1.00
Si1      0.37830    0.27736    1.04247   1.00
Si1      0.34647    0.16362    0.95279   1.00
C6       0.41413    0.26043    1.07538   1.00
C6       0.39841    0.28635    0.99598   1.00
C6       0.35145    0.31649    1.06253   1.00
C6       0.30449    0.13717    0.96693   1.00
C6       0.35223    0.16058    0.90198   1.00
C6       0.38836    0.14351    0.97477   1.00
C6       0.39855    0.23776    1.11194   1.00
H2       0.42955    0.23869    1.05791   1.00
C6       0.44656    0.28851    1.09147   1.00
H2       0.39967    0.25705    0.98358   1.00
C6       0.37428    0.31133    0.96634   1.00
C6       0.44101    0.30261    0.99336   1.00
H2       0.33829    0.30308    1.08831   1.00
C6       0.37513    0.35254    1.07772   1.00
C6       0.31705    0.33501    1.03849   1.00
C6       0.29173    0.13894    1.01071   1.00
C6       0.26618    0.14079    0.94225   1.00
H2       0.31359    0.10703    0.96212   1.00
H2       0.32470    0.17173    0.89051   1.00
C6       0.38461    0.18721    0.88378   1.00
C6       0.35786    0.11905    0.88393   1.00
H2       0.41161    0.14922    0.95375   1.00
C6       0.40231    0.16315    1.01336   1.00
C6       0.38911    0.09846    0.98244   1.00
H2       0.38019    0.21312    1.10346   1.00
H2       0.38137    0.25680    1.13090   1.00
H2       0.42257    0.22575    1.12917   1.00
H2       0.47369    0.27235    1.09608   1.00
H2       0.45303    0.31252    1.07178   1.00
H2       0.43870    0.30117    1.11964   1.00
H2       0.38564    0.30779    0.93672   1.00
H2       0.34380    0.30250    0.96532   1.00
H2       0.37572    0.34233    0.97352   1.00
H2       0.46163    0.28374    1.00862   1.00
H2       0.45104    0.30404    0.96308   1.00
H2       0.44287    0.33202    1.00550   1.00
H2       0.39455    0.36388    1.05514   1.00
H2       0.35605    0.37637    1.08708   1.00
H2       0.39229    0.34512    1.10332   1.00
H2       0.32712    0.35812    1.01902   1.00
H2       0.30140    0.31411    1.02068   1.00
H2       0.29567    0.34808    1.05828   1.00
H2       0.27439    0.16485    1.01688   1.00
H2       0.27368    0.11368    1.01809   1.00
H2       0.31658    0.13867    1.03048   1.00
H2       0.24489    0.11877    0.95125   1.00
H2       0.25222    0.16908    0.94574   1.00
H2       0.27138    0.13599    0.91122   1.00
H2       0.38155    0.18835    0.85202   1.00
H2       0.38232    0.21721    0.89435   1.00
H2       0.41389    0.17657    0.89035   1.00
H2       0.33567    0.09864    0.89416   1.00
H2       0.35537    0.12031    0.85212   1.00
H2       0.38660    0.10714    0.89085   1.00
H2       0.38067    0.16073    1.03656   1.00
H2       0.42963    0.15048    1.02381   1.00
H2       0.40773    0.19395    1.00834   1.00
H2       0.41846    0.08881    0.99044   1.00
H2       0.36947    0.09035    1.00622   1.00
H2       0.38077    0.08194    0.95657   1.00
C4       0.24883    0.52084    0.74719   1.00
C4       0.24951    0.47912    0.74745   1.00
C3       0.25471    0.54364    0.71310   1.00
C3       0.25963    0.45616    0.71447   1.00
C3       0.24253    0.54123    0.78296   1.00
C3       0.23947    0.45886    0.78244   1.00
C2       0.24895    0.60512    0.74943   1.00
C2       0.25105    0.39488    0.75057   1.00
C3       0.25500    0.58462    0.71419   1.00
C3       0.26004    0.41519    0.71586   1.00
C3       0.24219    0.58258    0.78333   1.00
C3       0.24168    0.41762    0.78369   1.00
H1       0.25883    0.53115    0.68645   1.00
H1       0.26725    0.46852    0.68854   1.00
C5       0.23643    0.52020    0.81811   1.00
C5       0.22762    0.47980    0.81608   1.00
H1       0.25969    0.59955    0.68866   1.00
H1       0.26726    0.40010    0.69101   1.00
H1       0.23656    0.59680    0.80900   1.00
H1       0.23683    0.40368    0.80962   1.00
O3       0.23688    0.53961    0.85332   1.00
O3       0.21052    0.46099    0.84739   1.00
Si1      0.27736    0.54247    0.87830   1.00
Si1      0.16362    0.45279    0.84647   1.00
C6       0.26043    0.57538    0.91413   1.00
C6       0.28635    0.49598    0.89841   1.00
C6       0.31649    0.56253    0.85145   1.00
C6       0.13717    0.46693    0.80449   1.00
C6       0.16058    0.40198    0.85223   1.00
C6       0.14351    0.47477    0.88836   1.00
C6       0.23776    0.61194    0.89855   1.00
H2       0.23869    0.55791    0.92955   1.00
C6       0.28851    0.59147    0.94656   1.00
H2       0.25705    0.48358    0.89967   1.00
C6       0.31133    0.46634    0.87428   1.00
C6       0.30261    0.49336    0.94101   1.00
H2       0.30308    0.58831    0.83829   1.00
C6       0.35254    0.57772    0.87513   1.00
C6       0.33501    0.53849    0.81705   1.00
C6       0.13894    0.51071    0.79173   1.00
C6       0.14079    0.44225    0.76618   1.00
H2       0.10703    0.46212    0.81359   1.00
H2       0.17173    0.39051    0.82470   1.00
C6       0.18721    0.38378    0.88461   1.00
C6       0.11905    0.38393    0.85786   1.00
H2       0.14922    0.45375    0.91161   1.00
C6       0.16315    0.51336    0.90231   1.00
C6       0.09846    0.48244    0.88911   1.00
H2       0.21312    0.60346    0.88019   1.00
H2       0.25680    0.63090    0.88137   1.00
H2       0.22575    0.62917    0.92257   1.00
H2       0.27235    0.59608    0.97369   1.00
H2       0.31252    0.57178    0.95303   1.00
H2       0.30117    0.61964    0.93870   1.00
H2       0.30779    0.43672    0.88564   1.00
H2       0.30250    0.46532    0.84380   1.00
H2       0.34233    0.47352    0.87572   1.00
H2       0.28374    0.50862    0.96163   1.00
H2       0.30404    0.46308    0.95104   1.00
H2       0.33202    0.50550    0.94287   1.00
H2       0.36388    0.55514    0.89455   1.00
H2       0.37637    0.58708    0.85605   1.00
H2       0.34512    0.60332    0.89229   1.00
H2       0.35812    0.51902    0.82712   1.00
H2       0.31411    0.52068    0.80140   1.00
H2       0.34808    0.55828    0.79567   1.00
H2       0.16485    0.51688    0.77439   1.00
H2       0.11368    0.51809    0.77368   1.00
H2       0.13867    0.53048    0.81658   1.00
H2       0.11877    0.45125    0.74489   1.00
H2       0.16908    0.44574    0.75222   1.00
H2       0.13599    0.41122    0.77138   1.00
H2       0.18835    0.35202    0.88155   1.00
H2       0.21721    0.39435    0.88232   1.00
H2       0.17657    0.39035    0.91389   1.00
H2       0.09864    0.39416    0.83567   1.00
H2       0.12031    0.35212    0.85537   1.00
H2       0.10714    0.39085    0.88660   1.00
H2       0.16073    0.53656    0.88067   1.00
H2       0.15048    0.52381    0.92963   1.00
H2       0.19395    0.50834    0.90773   1.00
H2       0.08881    0.49044    0.91846   1.00
H2       0.09035    0.50622    0.86947   1.00
H2       0.08194    0.45657    0.88077   1.00
C4       -0.02084   0.24719    0.75117   1.00
C4       0.02088    0.24745    0.75049   1.00
C3       -0.04364   0.21310    0.74529   1.00
C3       0.04384    0.21447    0.74037   1.00
C3       -0.04123   0.28296    0.75747   1.00
C3       0.04114    0.28244    0.76053   1.00
C2       -0.10512   0.24943    0.75105   1.00
C2       0.10512    0.25057    0.74895   1.00
C3       -0.08462   0.21419    0.74500   1.00
C3       0.08481    0.21586    0.73996   1.00
C3       -0.08258   0.28333    0.75781   1.00
C3       0.08238    0.28369    0.75832   1.00
H1       -0.03115   0.18645    0.74117   1.00
H1       0.03148    0.18854    0.73275   1.00
C5       -0.02020   0.31811    0.76357   1.00
C5       0.02020    0.31608    0.77238   1.00
H1       -0.09955   0.18866    0.74031   1.00
H1       0.09990    0.19101    0.73274   1.00
H1       -0.09680   0.30900    0.76344   1.00
H1       0.09632    0.30962    0.76317   1.00
O3       -0.03961   0.35332    0.76312   1.00
O3       0.03901    0.34739    0.78948   1.00
Si1      -0.04247   0.37830    0.72264   1.00
Si1      0.04721    0.34647    0.83638   1.00
C6       -0.07538   0.41413    0.73957   1.00
C6       0.00402    0.39841    0.71365   1.00
C6       -0.06253   0.35145    0.68351   1.00
C6       0.03307    0.30449    0.86283   1.00
C6       0.09802    0.35223    0.83942   1.00
C6       0.02523    0.38836    0.85649   1.00
C6       -0.11194   0.39855    0.76224   1.00
H2       -0.05791   0.42955    0.76131   1.00
C6       -0.09147   0.44656    0.71149   1.00
H2       0.01642    0.39967    0.74295   1.00
C6       0.03366    0.37428    0.68867   1.00
C6       0.00664    0.44101    0.69739   1.00
H2       -0.08831   0.33829    0.69692   1.00
C6       -0.07772   0.37513    0.64746   1.00
C6       -0.03849   0.31705    0.66499   1.00
C6       -0.01071   0.29173    0.86106   1.00
C6       0.05775    0.26618    0.85921   1.00
H2       0.03788    0.31359    0.89297   1.00
H2       0.10949    0.32470    0.82827   1.00
C6       0.11622    0.38461    0.81279   1.00
C6       0.11607    0.35786    0.88095   1.00
H2       0.04625    0.41161    0.85078   1.00
C6       -0.01336   0.40231    0.83685   1.00
C6       0.01756    0.38911    0.90154   1.00
H2       -0.10346   0.38019    0.78688   1.00
H2       -0.13090   0.38137    0.74320   1.00
H2       -0.12917   0.42257    0.77425   1.00
H2       -0.09608   0.47369    0.72765   1.00
H2       -0.07178   0.45303    0.68748   1.00
H2       -0.11964   0.43870    0.69883   1.00
H2       0.06328    0.38564    0.69221   1.00
H2       0.03468    0.34380    0.69750   1.00
H2       0.02648    0.37572    0.65767   1.00
H2       -0.00862   0.46163    0.71626   1.00
H2       0.03692    0.45104    0.69596   1.00
H2       -0.00550   0.44287    0.66798   1.00
H2       -0.05514   0.39455    0.63612   1.00
H2       -0.08708   0.35605    0.62363   1.00
H2       -0.10332   0.39229    0.65488   1.00
H2       -0.01902   0.32712    0.64188   1.00
H2       -0.02068   0.30140    0.68589   1.00
H2       -0.05828   0.29567    0.65192   1.00
H2       -0.01688   0.27439    0.83515   1.00
H2       -0.01809   0.27368    0.88632   1.00
H2       -0.03048   0.31658    0.86133   1.00
H2       0.04875    0.24489    0.88123   1.00
H2       0.05426    0.25222    0.83092   1.00
H2       0.08878    0.27138    0.86401   1.00
H2       0.14798    0.38155    0.81165   1.00
H2       0.10565    0.38232    0.78279   1.00
H2       0.10965    0.41389    0.82343   1.00
H2       0.10584    0.33567    0.90136   1.00
H2       0.14788    0.35537    0.87969   1.00
H2       0.10915    0.38660    0.89286   1.00
H2       -0.03656   0.38067    0.83927   1.00
H2       -0.02381   0.42963    0.84952   1.00
H2       -0.00834   0.40773    0.80605   1.00
H2       0.00956    0.41846    0.91119   1.00
H2       -0.00622   0.36947    0.90965   1.00
H2       0.04343    0.38077    0.91806   1.00
C4       0.52084    0.24719    0.74883   1.00
C4       0.47912    0.24745    0.74951   1.00
C3       0.54364    0.21310    0.75471   1.00
C3       0.45616    0.21447    0.75963   1.00
C3       0.54123    0.28296    0.74253   1.00
C3       0.45886    0.28244    0.73947   1.00
C2       0.60512    0.24943    0.74895   1.00
C2       0.39488    0.25057    0.75105   1.00
C3       0.58462    0.21419    0.75500   1.00
C3       0.41519    0.21586    0.76004   1.00
C3       0.58258    0.28333    0.74219   1.00
C3       0.41762    0.28369    0.74168   1.00
H1       0.53115    0.18645    0.75883   1.00
H1       0.46852    0.18854    0.76725   1.00
C5       0.52020    0.31811    0.73643   1.00
C5       0.47980    0.31608    0.72762   1.00
H1       0.59955    0.18866    0.75969   1.00
H1       0.40010    0.19101    0.76726   1.00
H1       0.59680    0.30900    0.73656   1.00
H1       0.40368    0.30962    0.73683   1.00
O3       0.53961    0.35332    0.73688   1.00
O3       0.46099    0.34739    0.71052   1.00
Si1      0.54247    0.37830    0.77736   1.00
Si1      0.45279    0.34647    0.66362   1.00
C6       0.57538    0.41413    0.76043   1.00
C6       0.49598    0.39841    0.78635   1.00
C6       0.56253    0.35145    0.81649   1.00
C6       0.46693    0.30449    0.63717   1.00
C6       0.40198    0.35223    0.66058   1.00
C6       0.47477    0.38836    0.64351   1.00
C6       0.61194    0.39855    0.73776   1.00
H2       0.55791    0.42955    0.73869   1.00
C6       0.59147    0.44656    0.78851   1.00
H2       0.48358    0.39967    0.75705   1.00
C6       0.46634    0.37428    0.81133   1.00
C6       0.49336    0.44101    0.80261   1.00
H2       0.58831    0.33829    0.80308   1.00
C6       0.57772    0.37513    0.85254   1.00
C6       0.53849    0.31705    0.83501   1.00
C6       0.51071    0.29173    0.63894   1.00
C6       0.44225    0.26618    0.64079   1.00
H2       0.46212    0.31359    0.60703   1.00
H2       0.39051    0.32470    0.67173   1.00
C6       0.38378    0.38461    0.68721   1.00
C6       0.38393    0.35786    0.61905   1.00
H2       0.45375    0.41161    0.64922   1.00
C6       0.51336    0.40231    0.66315   1.00
C6       0.48244    0.38911    0.59846   1.00
H2       0.60346    0.38019    0.71312   1.00
H2       0.63090    0.38137    0.75680   1.00
H2       0.62917    0.42257    0.72575   1.00
H2       0.59608    0.47369    0.77235   1.00
H2       0.57178    0.45303    0.81252   1.00
H2       0.61964    0.43870    0.80117   1.00
H2       0.43672    0.38564    0.80779   1.00
H2       0.46532    0.34380    0.80250   1.00
H2       0.47352    0.37572    0.84233   1.00
H2       0.50862    0.46163    0.78374   1.00
H2       0.46308    0.45104    0.80404   1.00
H2       0.50550    0.44287    0.83202   1.00
H2       0.55514    0.39455    0.86388   1.00
H2       0.58708    0.35605    0.87637   1.00
H2       0.60332    0.39229    0.84512   1.00
H2       0.51902    0.32712    0.85812   1.00
H2       0.52068    0.30140    0.81411   1.00
H2       0.55828    0.29567    0.84808   1.00
H2       0.51688    0.27439    0.66485   1.00
H2       0.51809    0.27368    0.61368   1.00
H2       0.53048    0.31658    0.63867   1.00
H2       0.45125    0.24489    0.61877   1.00
H2       0.44574    0.25222    0.66908   1.00
H2       0.41122    0.27138    0.63599   1.00
H2       0.35202    0.38155    0.68835   1.00
H2       0.39435    0.38232    0.71721   1.00
H2       0.39035    0.41389    0.67657   1.00
H2       0.39416    0.33567    0.59864   1.00
H2       0.35212    0.35537    0.62031   1.00
H2       0.39085    0.38660    0.60714   1.00
H2       0.53656    0.38067    0.66073   1.00
H2       0.52381    0.42963    0.65048   1.00
H2       0.50834    0.40773    0.69395   1.00
H2       0.49044    0.41846    0.58881   1.00
H2       0.50622    0.36947    0.59035   1.00
H2       0.45657    0.38077    0.58194   1.00
C4       0.25117    -0.02084   0.74719   1.00
C4       0.25049    0.02088    0.74745   1.00
C3       0.24529    -0.04364   0.71310   1.00
C3       0.24037    0.04384    0.71447   1.00
C3       0.25747    -0.04123   0.78296   1.00
C3       0.26053    0.04114    0.78244   1.00
C2       0.25105    -0.10512   0.74943   1.00
C2       0.24895    0.10512    0.75057   1.00
C3       0.24500    -0.08462   0.71419   1.00
C3       0.23996    0.08481    0.71586   1.00
C3       0.25781    -0.08258   0.78333   1.00
C3       0.25832    0.08238    0.78369   1.00
H1       0.24117    -0.03115   0.68645   1.00
H1       0.23275    0.03148    0.68854   1.00
C5       0.26357    -0.02020   0.81811   1.00
C5       0.27238    0.02020    0.81608   1.00
H1       0.24031    -0.09955   0.68866   1.00
H1       0.23274    0.09990    0.69101   1.00
H1       0.26344    -0.09680   0.80900   1.00
H1       0.26317    0.09632    0.80962   1.00
O3       0.26312    -0.03961   0.85332   1.00
O3       0.28948    0.03901    0.84739   1.00
Si1      0.22264    -0.04247   0.87830   1.00
Si1      0.33638    0.04721    0.84647   1.00
C6       0.23957    -0.07538   0.91413   1.00
C6       0.21365    0.00402    0.89841   1.00
C6       0.18351    -0.06253   0.85145   1.00
C6       0.36283    0.03307    0.80449   1.00
C6       0.33942    0.09802    0.85223   1.00
C6       0.35649    0.02523    0.88836   1.00
C6       0.26224    -0.11194   0.89855   1.00
H2       0.26131    -0.05791   0.92955   1.00
C6       0.21149    -0.09147   0.94656   1.00
H2       0.24295    0.01642    0.89967   1.00
C6       0.18867    0.03366    0.87428   1.00
C6       0.19739    0.00664    0.94101   1.00
H2       0.19692    -0.08831   0.83829   1.00
C6       0.14746    -0.07772   0.87513   1.00
C6       0.16499    -0.03849   0.81705   1.00
C6       0.36106    -0.01071   0.79173   1.00
C6       0.35921    0.05775    0.76618   1.00
H2       0.39297    0.03788    0.81359   1.00
H2       0.32827    0.10949    0.82470   1.00
C6       0.31279    0.11622    0.88461   1.00
C6       0.38095    0.11607    0.85786   1.00
H2       0.35078    0.04625    0.91161   1.00
C6       0.33685    -0.01336   0.90231   1.00
C6       0.40154    0.01756    0.88911   1.00
H2       0.28688    -0.10346   0.88019   1.00
H2       0.24320    -0.13090   0.88137   1.00
H2       0.27425    -0.12917   0.92257   1.00
H2       0.22765    -0.09608   0.97369   1.00
H2       0.18748    -0.07178   0.95303   1.00
H2       0.19883    -0.11964   0.93870   1.00
H2       0.19221    0.06328    0.88564   1.00
H2       0.19750    0.03468    0.84380   1.00
H2       0.15767    0.02648    0.87572   1.00
H2       0.21626    -0.00862   0.96163   1.00
H2       0.19596    0.03692    0.95104   1.00
H2       0.16798    -0.00550   0.94287   1.00
H2       0.13612    -0.05514   0.89455   1.00
H2       0.12363    -0.08708   0.85605   1.00
H2       0.15488    -0.10332   0.89229   1.00
H2       0.14188    -0.01902   0.82712   1.00
H2       0.18589    -0.02068   0.80140   1.00
H2       0.15192    -0.05828   0.79567   1.00
H2       0.33515    -0.01688   0.77439   1.00
H2       0.38632    -0.01809   0.77368   1.00
H2       0.36133    -0.03048   0.81658   1.00
H2       0.38123    0.04875    0.74489   1.00
H2       0.33092    0.05426    0.75222   1.00
H2       0.36401    0.08878    0.77138   1.00
H2       0.31165    0.14798    0.88155   1.00
H2       0.28279    0.10565    0.88232   1.00
H2       0.32343    0.10965    0.91389   1.00
H2       0.40136    0.10584    0.83567   1.00
H2       0.37969    0.14788    0.85537   1.00
H2       0.39286    0.10915    0.88660   1.00
H2       0.33927    -0.03656   0.88067   1.00
H2       0.34952    -0.02381   0.92963   1.00
H2       0.30605    -0.00834   0.90773   1.00
H2       0.41119    0.00956    0.91846   1.00
H2       0.40965    -0.00622   0.86947   1.00
H2       0.41806    0.04343    0.88077   1.00
C4       0.24719    0.25117    0.47916   1.00
C4       0.24745    0.25049    0.52088   1.00
C3       0.21310    0.24529    0.45636   1.00
C3       0.21447    0.24037    0.54384   1.00
C3       0.28296    0.25747    0.45877   1.00
C3       0.28244    0.26053    0.54114   1.00
C2       0.24943    0.25105    0.39488   1.00
C2       0.25057    0.24895    0.60512   1.00
C3       0.21419    0.24500    0.41538   1.00
C3       0.21586    0.23996    0.58481   1.00
C3       0.28333    0.25781    0.41742   1.00
C3       0.28369    0.25832    0.58238   1.00
H1       0.18645    0.24117    0.46885   1.00
H1       0.18854    0.23275    0.53148   1.00
C5       0.31811    0.26357    0.47980   1.00
C5       0.31608    0.27238    0.52020   1.00
H1       0.18866    0.24031    0.40045   1.00
H1       0.19101    0.23274    0.59990   1.00
H1       0.30900    0.26344    0.40320   1.00
H1       0.30962    0.26317    0.59632   1.00
O3       0.35332    0.26312    0.46039   1.00
O3       0.34739    0.28948    0.53901   1.00
Si1      0.37830    0.22264    0.45753   1.00
Si1      0.34647    0.33638    0.54721   1.00
C6       0.41413    0.23957    0.42462   1.00
C6       0.39841    0.21365    0.50402   1.00
C6       0.35145    0.18351    0.43747   1.00
C6       0.30449    0.36283    0.53307   1.00
C6       0.35223    0.33942    0.59802   1.00
C6       0.38836    0.35649    0.52523   1.00
C6       0.39855    0.26224    0.38806   1.00
H2       0.42955    0.26131    0.44209   1.00
C6       0.44656    0.21149    0.40853   1.00
H2       0.39967    0.24295    0.51642   1.00
C6       0.37428    0.18867    0.53366   1.00
C6       0.44101    0.19739    0.50664   1.00
H2       0.33829    0.19692    0.41169   1.00
C6       0.37513    0.14746    0.42228   1.00
C6       0.31705    0.16499    0.46151   1.00
C6       0.29173    0.36106    0.48929   1.00
C6       0.26618    0.35921    0.55775   1.00
H2       0.31359    0.39297    0.53788   1.00
H2       0.32470    0.32827    0.60949   1.00
C6       0.38461    0.31279    0.61622   1.00
C6       0.35786    0.38095    0.61607   1.00
H2       0.41161    0.35078    0.54625   1.00
C6       0.40231    0.33685    0.48664   1.00
C6       0.38911    0.40154    0.51756   1.00
H2       0.38019    0.28688    0.39654   1.00
H2       0.38137    0.24320    0.36910   1.00
H2       0.42257    0.27425    0.37083   1.00
H2       0.47369    0.22765    0.40392   1.00
H2       0.45303    0.18748    0.42822   1.00
H2       0.43870    0.19883    0.38036   1.00
H2       0.38564    0.19221    0.56328   1.00
H2       0.34380    0.19750    0.53468   1.00
H2       0.37572    0.15767    0.52648   1.00
H2       0.46163    0.21626    0.49138   1.00
H2       0.45104    0.19596    0.53692   1.00
H2       0.44287    0.16798    0.49450   1.00
H2       0.39455    0.13612    0.44486   1.00
H2       0.35605    0.12363    0.41292   1.00
H2       0.39229    0.15488    0.39668   1.00
H2       0.32712    0.14188    0.48098   1.00
H2       0.30140    0.18589    0.47932   1.00
H2       0.29567    0.15192    0.44172   1.00
H2       0.27439    0.33515    0.48312   1.00
H2       0.27368    0.38632    0.48191   1.00
H2       0.31658    0.36133    0.46952   1.00
H2       0.24489    0.38123    0.54875   1.00
H2       0.25222    0.33092    0.55426   1.00
H2       0.27138    0.36401    0.58878   1.00
H2       0.38155    0.31165    0.64798   1.00
H2       0.38232    0.28279    0.60565   1.00
H2       0.41389    0.32343    0.60965   1.00
H2       0.33567    0.40136    0.60584   1.00
H2       0.35537    0.37969    0.64788   1.00
H2       0.38660    0.39286    0.60915   1.00
H2       0.38067    0.33927    0.46344   1.00
H2       0.42963    0.34952    0.47619   1.00
H2       0.40773    0.30605    0.49166   1.00
H2       0.41846    0.41119    0.50956   1.00
H2       0.36947    0.40965    0.49378   1.00
H2       0.38077    0.41806    0.54343   1.00
C4       0.24719    0.74883    0.52084   1.00
C4       0.24745    0.74951    0.47912   1.00
C3       0.21310    0.75471    0.54364   1.00
C3       0.21447    0.75963    0.45616   1.00
C3       0.28296    0.74253    0.54123   1.00
C3       0.28244    0.73947    0.45886   1.00
C2       0.24943    0.74895    0.60512   1.00
C2       0.25057    0.75105    0.39488   1.00
C3       0.21419    0.75500    0.58462   1.00
C3       0.21586    0.76004    0.41519   1.00
C3       0.28333    0.74219    0.58258   1.00
C3       0.28369    0.74168    0.41762   1.00
H1       0.18645    0.75883    0.53115   1.00
H1       0.18854    0.76725    0.46852   1.00
C5       0.31811    0.73643    0.52020   1.00
C5       0.31608    0.72762    0.47980   1.00
H1       0.18866    0.75969    0.59955   1.00
H1       0.19101    0.76726    0.40010   1.00
H1       0.30900    0.73656    0.59680   1.00
H1       0.30962    0.73683    0.40368   1.00
O3       0.35332    0.73688    0.53961   1.00
O3       0.34739    0.71052    0.46099   1.00
Si1      0.37830    0.77736    0.54247   1.00
Si1      0.34647    0.66362    0.45279   1.00
C6       0.41413    0.76043    0.57538   1.00
C6       0.39841    0.78635    0.49598   1.00
C6       0.35145    0.81649    0.56253   1.00
C6       0.30449    0.63717    0.46693   1.00
C6       0.35223    0.66058    0.40198   1.00
C6       0.38836    0.64351    0.47477   1.00
C6       0.39855    0.73776    0.61194   1.00
H2       0.42955    0.73869    0.55791   1.00
C6       0.44656    0.78851    0.59147   1.00
H2       0.39967    0.75705    0.48358   1.00
C6       0.37428    0.81133    0.46634   1.00
C6       0.44101    0.80261    0.49336   1.00
H2       0.33829    0.80308    0.58831   1.00
C6       0.37513    0.85254    0.57772   1.00
C6       0.31705    0.83501    0.53849   1.00
C6       0.29173    0.63894    0.51071   1.00
C6       0.26618    0.64079    0.44225   1.00
H2       0.31359    0.60703    0.46212   1.00
H2       0.32470    0.67173    0.39051   1.00
C6       0.38461    0.68721    0.38378   1.00
C6       0.35786    0.61905    0.38393   1.00
H2       0.41161    0.64922    0.45375   1.00
C6       0.40231    0.66315    0.51336   1.00
C6       0.38911    0.59846    0.48244   1.00
H2       0.38019    0.71312    0.60346   1.00
H2       0.38137    0.75680    0.63090   1.00
H2       0.42257    0.72575    0.62917   1.00
H2       0.47369    0.77235    0.59608   1.00
H2       0.45303    0.81252    0.57178   1.00
H2       0.43870    0.80117    0.61964   1.00
H2       0.38564    0.80779    0.43672   1.00
H2       0.34380    0.80250    0.46532   1.00
H2       0.37572    0.84233    0.47352   1.00
H2       0.46163    0.78374    0.50862   1.00
H2       0.45104    0.80404    0.46308   1.00
H2       0.44287    0.83202    0.50550   1.00
H2       0.39455    0.86388    0.55514   1.00
H2       0.35605    0.87637    0.58708   1.00
H2       0.39229    0.84512    0.60332   1.00
H2       0.32712    0.85812    0.51902   1.00
H2       0.30140    0.81411    0.52068   1.00
H2       0.29567    0.84808    0.55828   1.00
H2       0.27439    0.66485    0.51688   1.00
H2       0.27368    0.61368    0.51809   1.00
H2       0.31658    0.63867    0.53048   1.00
H2       0.24489    0.61877    0.45125   1.00
H2       0.25222    0.66908    0.44574   1.00
H2       0.27138    0.63599    0.41122   1.00
H2       0.38155    0.68835    0.35202   1.00
H2       0.38232    0.71721    0.39435   1.00
H2       0.41389    0.67657    0.39035   1.00
H2       0.33567    0.59864    0.39416   1.00
H2       0.35537    0.62031    0.35212   1.00
H2       0.38660    0.60714    0.39085   1.00
H2       0.38067    0.66073    0.53656   1.00
H2       0.42963    0.65048    0.52381   1.00
H2       0.40773    0.69395    0.50834   1.00
H2       0.41846    0.58881    0.49044   1.00
H2       0.36947    0.59035    0.50622   1.00
H2       0.38077    0.58194    0.45657   1.00
C4       0.24883    1.02084    0.24719   1.00
C4       0.24951    0.97912    0.24745   1.00
C3       0.25471    1.04364    0.21310   1.00
C3       0.25963    0.95616    0.21447   1.00
C3       0.24253    1.04123    0.28296   1.00
C3       0.23947    0.95886    0.28244   1.00
C2       0.24895    1.10512    0.24943   1.00
C2       0.25105    0.89488    0.25057   1.00
C3       0.25500    1.08462    0.21419   1.00
C3       0.26004    0.91519    0.21586   1.00
C3       0.24219    1.08258    0.28333   1.00
C3       0.24168    0.91762    0.28369   1.00
H1       0.25883    1.03115    0.18645   1.00
H1       0.26725    0.96852    0.18854   1.00
C5       0.23643    1.02020    0.31811   1.00
C5       0.22762    0.97980    0.31608   1.00
H1       0.25969    1.09955    0.18866   1.00
H1       0.26726    0.90010    0.19101   1.00
H1       0.23656    1.09680    0.30900   1.00
H1       0.23683    0.90368    0.30962   1.00
O3       0.23688    1.03961    0.35332   1.00
O3       0.21052    0.96099    0.34739   1.00
Si1      0.27736    1.04247    0.37830   1.00
Si1      0.16362    0.95279    0.34647   1.00
C6       0.26043    1.07538    0.41413   1.00
C6       0.28635    0.99598    0.39841   1.00
C6       0.31649    1.06253    0.35145   1.00
C6       0.13717    0.96693    0.30449   1.00
C6       0.16058    0.90198    0.35223   1.00
C6       0.14351    0.97477    0.38836   1.00
C6       0.23776    1.11194    0.39855   1.00
H2       0.23869    1.05791    0.42955   1.00
C6       0.28851    1.09147    0.44656   1.00
H2       0.25705    0.98358    0.39967   1.00
C6       0.31133    0.96634    0.37428   1.00
C6       0.30261    0.99336    0.44101   1.00
H2       0.30308    1.08831    0.33829   1.00
C6       0.35254    1.07772    0.37513   1.00
C6       0.33501    1.03849    0.31705   1.00
C6       0.13894    1.01071    0.29173   1.00
C6       0.14079    0.94225    0.26618   1.00
H2       0.10703    0.96212    0.31359   1.00
H2       0.17173    0.89051    0.32470   1.00
C6       0.18721    0.88378    0.38461   1.00
C6       0.11905    0.88393    0.35786   1.00
H2       0.14922    0.95375    0.41161   1.00
C6       0.16315    1.01336    0.40231   1.00
C6       0.09846    0.98244    0.38911   1.00
H2       0.21312    1.10346    0.38019   1.00
H2       0.25680    1.13090    0.38137   1.00
H2       0.22575    1.12917    0.42257   1.00
H2       0.27235    1.09608    0.47369   1.00
H2       0.31252    1.07178    0.45303   1.00
H2       0.30117    1.11964    0.43870   1.00
H2       0.30779    0.93672    0.38564   1.00
H2       0.30250    0.96532    0.34380   1.00
H2       0.34233    0.97352    0.37572   1.00
H2       0.28374    1.00862    0.46163   1.00
H2       0.30404    0.96308    0.45104   1.00
H2       0.33202    1.00550    0.44287   1.00
H2       0.36388    1.05514    0.39455   1.00
H2       0.37637    1.08708    0.35605   1.00
H2       0.34512    1.10332    0.39229   1.00
H2       0.35812    1.01902    0.32712   1.00
H2       0.31411    1.02068    0.30140   1.00
H2       0.34808    1.05828    0.29567   1.00
H2       0.16485    1.01688    0.27439   1.00
H2       0.11368    1.01809    0.27368   1.00
H2       0.13867    1.03048    0.31658   1.00
H2       0.11877    0.95125    0.24489   1.00
H2       0.16908    0.94574    0.25222   1.00
H2       0.13599    0.91122    0.27138   1.00
H2       0.18835    0.85202    0.38155   1.00
H2       0.21721    0.89435    0.38232   1.00
H2       0.17657    0.89035    0.41389   1.00
H2       0.09864    0.89416    0.33567   1.00
H2       0.12031    0.85212    0.35537   1.00
H2       0.10714    0.89085    0.38660   1.00
H2       0.16073    1.03656    0.38067   1.00
H2       0.15048    1.02381    0.42963   1.00
H2       0.19395    1.00834    0.40773   1.00
H2       0.08881    0.99044    0.41846   1.00
H2       0.09035    1.00622    0.36947   1.00
H2       0.08194    0.95657    0.38077   1.00
C4       -0.02084   0.74719    0.25117   1.00
C4       0.02088    0.74745    0.25049   1.00
C3       -0.04364   0.71310    0.24529   1.00
C3       0.04384    0.71447    0.24037   1.00
C3       -0.04123   0.78296    0.25747   1.00
C3       0.04114    0.78244    0.26053   1.00
C2       -0.10512   0.74943    0.25105   1.00
C2       0.10512    0.75057    0.24895   1.00
C3       -0.08462   0.71419    0.24500   1.00
C3       0.08481    0.71586    0.23996   1.00
C3       -0.08258   0.78333    0.25781   1.00
C3       0.08238    0.78369    0.25832   1.00
H1       -0.03115   0.68645    0.24117   1.00
H1       0.03148    0.68854    0.23275   1.00
C5       -0.02020   0.81811    0.26357   1.00
C5       0.02020    0.81608    0.27238   1.00
H1       -0.09955   0.68866    0.24031   1.00
H1       0.09990    0.69101    0.23274   1.00
H1       -0.09680   0.80900    0.26344   1.00
H1       0.09632    0.80962    0.26317   1.00
O3       -0.03961   0.85332    0.26312   1.00
O3       0.03901    0.84739    0.28948   1.00
Si1      -0.04247   0.87830    0.22264   1.00
Si1      0.04721    0.84647    0.33638   1.00
C6       -0.07538   0.91413    0.23957   1.00
C6       0.00402    0.89841    0.21365   1.00
C6       -0.06253   0.85145    0.18351   1.00
C6       0.03307    0.80449    0.36283   1.00
C6       0.09802    0.85223    0.33942   1.00
C6       0.02523    0.88836    0.35649   1.00
C6       -0.11194   0.89855    0.26224   1.00
H2       -0.05791   0.92955    0.26131   1.00
C6       -0.09147   0.94656    0.21149   1.00
H2       0.01642    0.89967    0.24295   1.00
C6       0.03366    0.87428    0.18867   1.00
C6       0.00664    0.94101    0.19739   1.00
H2       -0.08831   0.83829    0.19692   1.00
C6       -0.07772   0.87513    0.14746   1.00
C6       -0.03849   0.81705    0.16499   1.00
C6       -0.01071   0.79173    0.36106   1.00
C6       0.05775    0.76618    0.35921   1.00
H2       0.03788    0.81359    0.39297   1.00
H2       0.10949    0.82470    0.32827   1.00
C6       0.11622    0.88461    0.31279   1.00
C6       0.11607    0.85786    0.38095   1.00
H2       0.04625    0.91161    0.35078   1.00
C6       -0.01336   0.90231    0.33685   1.00
C6       0.01756    0.88911    0.40154   1.00
H2       -0.10346   0.88019    0.28688   1.00
H2       -0.13090   0.88137    0.24320   1.00
H2       -0.12917   0.92257    0.27425   1.00
H2       -0.09608   0.97369    0.22765   1.00
H2       -0.07178   0.95303    0.18748   1.00
H2       -0.11964   0.93870    0.19883   1.00
H2       0.06328    0.88564    0.19221   1.00
H2       0.03468    0.84380    0.19750   1.00
H2       0.02648    0.87572    0.15767   1.00
H2       -0.00862   0.96163    0.21626   1.00
H2       0.03692    0.95104    0.19596   1.00
H2       -0.00550   0.94287    0.16798   1.00
H2       -0.05514   0.89455    0.13612   1.00
H2       -0.08708   0.85605    0.12363   1.00
H2       -0.10332   0.89229    0.15488   1.00
H2       -0.01902   0.82712    0.14188   1.00
H2       -0.02068   0.80140    0.18589   1.00
H2       -0.05828   0.79567    0.15192   1.00
H2       -0.01688   0.77439    0.33515   1.00
H2       -0.01809   0.77368    0.38632   1.00
H2       -0.03048   0.81658    0.36133   1.00
H2       0.04875    0.74489    0.38123   1.00
H2       0.05426    0.75222    0.33092   1.00
H2       0.08878    0.77138    0.36401   1.00
H2       0.14798    0.88155    0.31165   1.00
H2       0.10565    0.88232    0.28279   1.00
H2       0.10965    0.91389    0.32343   1.00
H2       0.10584    0.83567    0.40136   1.00
H2       0.14788    0.85537    0.37969   1.00
H2       0.10915    0.88660    0.39286   1.00
H2       -0.03656   0.88067    0.33927   1.00
H2       -0.02381   0.92963    0.34952   1.00
H2       -0.00834   0.90773    0.30605   1.00
H2       0.00956    0.91846    0.41119   1.00
H2       -0.00622   0.86947    0.40965   1.00
H2       0.04343    0.88077    0.41806   1.00
C4       0.52084    0.74719    0.24883   1.00
C4       0.47912    0.74745    0.24951   1.00
C3       0.54364    0.71310    0.25471   1.00
C3       0.45616    0.71447    0.25963   1.00
C3       0.54123    0.78296    0.24253   1.00
C3       0.45886    0.78244    0.23947   1.00
C2       0.60512    0.74943    0.24895   1.00
C2       0.39488    0.75057    0.25105   1.00
C3       0.58462    0.71419    0.25500   1.00
C3       0.41519    0.71586    0.26004   1.00
C3       0.58258    0.78333    0.24219   1.00
C3       0.41762    0.78369    0.24168   1.00
H1       0.53115    0.68645    0.25883   1.00
H1       0.46852    0.68854    0.26725   1.00
C5       0.52020    0.81811    0.23643   1.00
C5       0.47980    0.81608    0.22762   1.00
H1       0.59955    0.68866    0.25969   1.00
H1       0.40010    0.69101    0.26726   1.00
H1       0.59680    0.80900    0.23656   1.00
H1       0.40368    0.80962    0.23683   1.00
O3       0.53961    0.85332    0.23688   1.00
O3       0.46099    0.84739    0.21052   1.00
Si1      0.54247    0.87830    0.27736   1.00
Si1      0.45279    0.84647    0.16362   1.00
C6       0.57538    0.91413    0.26043   1.00
C6       0.49598    0.89841    0.28635   1.00
C6       0.56253    0.85145    0.31649   1.00
C6       0.46693    0.80449    0.13717   1.00
C6       0.40198    0.85223    0.16058   1.00
C6       0.47477    0.88836    0.14351   1.00
C6       0.61194    0.89855    0.23776   1.00
H2       0.55791    0.92955    0.23869   1.00
C6       0.59147    0.94656    0.28851   1.00
H2       0.48358    0.89967    0.25705   1.00
C6       0.46634    0.87428    0.31133   1.00
C6       0.49336    0.94101    0.30261   1.00
H2       0.58831    0.83829    0.30308   1.00
C6       0.57772    0.87513    0.35254   1.00
C6       0.53849    0.81705    0.33501   1.00
C6       0.51071    0.79173    0.13894   1.00
C6       0.44225    0.76618    0.14079   1.00
H2       0.46212    0.81359    0.10703   1.00
H2       0.39051    0.82470    0.17173   1.00
C6       0.38378    0.88461    0.18721   1.00
C6       0.38393    0.85786    0.11905   1.00
H2       0.45375    0.91161    0.14922   1.00
C6       0.51336    0.90231    0.16315   1.00
C6       0.48244    0.88911    0.09846   1.00
H2       0.60346    0.88019    0.21312   1.00
H2       0.63090    0.88137    0.25680   1.00
H2       0.62917    0.92257    0.22575   1.00
H2       0.59608    0.97369    0.27235   1.00
H2       0.57178    0.95303    0.31252   1.00
H2       0.61964    0.93870    0.30117   1.00
H2       0.43672    0.88564    0.30779   1.00
H2       0.46532    0.84380    0.30250   1.00
H2       0.47352    0.87572    0.34233   1.00
H2       0.50862    0.96163    0.28374   1.00
H2       0.46308    0.95104    0.30404   1.00
H2       0.50550    0.94287    0.33202   1.00
H2       0.55514    0.89455    0.36388   1.00
H2       0.58708    0.85605    0.37637   1.00
H2       0.60332    0.89229    0.34512   1.00
H2       0.51902    0.82712    0.35812   1.00
H2       0.52068    0.80140    0.31411   1.00
H2       0.55828    0.79567    0.34808   1.00
H2       0.51688    0.77439    0.16485   1.00
H2       0.51809    0.77368    0.11368   1.00
H2       0.53048    0.81658    0.13867   1.00
H2       0.45125    0.74489    0.11877   1.00
H2       0.44574    0.75222    0.16908   1.00
H2       0.41122    0.77138    0.13599   1.00
H2       0.35202    0.88155    0.18835   1.00
H2       0.39435    0.88232    0.21721   1.00
H2       0.39035    0.91389    0.17657   1.00
H2       0.39416    0.83567    0.09864   1.00
H2       0.35212    0.85537    0.12031   1.00
H2       0.39085    0.88660    0.10714   1.00
H2       0.53656    0.88067    0.16073   1.00
H2       0.52381    0.92963    0.15048   1.00
H2       0.50834    0.90773    0.19395   1.00
H2       0.49044    0.91846    0.08881   1.00
H2       0.50622    0.86947    0.09035   1.00
H2       0.45657    0.88077    0.08194   1.00
C4       0.25117    0.47916    0.24719   1.00
C4       0.25049    0.52088    0.24745   1.00
C3       0.24529    0.45636    0.21310   1.00
C3       0.24037    0.54384    0.21447   1.00
C3       0.25747    0.45877    0.28296   1.00
C3       0.26053    0.54114    0.28244   1.00
C2       0.25105    0.39488    0.24943   1.00
C2       0.24895    0.60512    0.25057   1.00
C3       0.24500    0.41538    0.21419   1.00
C3       0.23996    0.58481    0.21586   1.00
C3       0.25781    0.41742    0.28333   1.00
C3       0.25832    0.58238    0.28369   1.00
H1       0.24117    0.46885    0.18645   1.00
H1       0.23275    0.53148    0.18854   1.00
C5       0.26357    0.47980    0.31811   1.00
C5       0.27238    0.52020    0.31608   1.00
H1       0.24031    0.40045    0.18866   1.00
H1       0.23274    0.59990    0.19101   1.00
H1       0.26344    0.40320    0.30900   1.00
H1       0.26317    0.59632    0.30962   1.00
O3       0.26312    0.46039    0.35332   1.00
O3       0.28948    0.53901    0.34739   1.00
Si1      0.22264    0.45753    0.37830   1.00
Si1      0.33638    0.54721    0.34647   1.00
C6       0.23957    0.42462    0.41413   1.00
C6       0.21365    0.50402    0.39841   1.00
C6       0.18351    0.43747    0.35145   1.00
C6       0.36283    0.53307    0.30449   1.00
C6       0.33942    0.59802    0.35223   1.00
C6       0.35649    0.52523    0.38836   1.00
C6       0.26224    0.38806    0.39855   1.00
H2       0.26131    0.44209    0.42955   1.00
C6       0.21149    0.40853    0.44656   1.00
H2       0.24295    0.51642    0.39967   1.00
C6       0.18867    0.53366    0.37428   1.00
C6       0.19739    0.50664    0.44101   1.00
H2       0.19692    0.41169    0.33829   1.00
C6       0.14746    0.42228    0.37513   1.00
C6       0.16499    0.46151    0.31705   1.00
C6       0.36106    0.48929    0.29173   1.00
C6       0.35921    0.55775    0.26618   1.00
H2       0.39297    0.53788    0.31359   1.00
H2       0.32827    0.60949    0.32470   1.00
C6       0.31279    0.61622    0.38461   1.00
C6       0.38095    0.61607    0.35786   1.00
H2       0.35078    0.54625    0.41161   1.00
C6       0.33685    0.48664    0.40231   1.00
C6       0.40154    0.51756    0.38911   1.00
H2       0.28688    0.39654    0.38019   1.00
H2       0.24320    0.36910    0.38137   1.00
H2       0.27425    0.37083    0.42257   1.00
H2       0.22765    0.40392    0.47369   1.00
H2       0.18748    0.42822    0.45303   1.00
H2       0.19883    0.38036    0.43870   1.00
H2       0.19221    0.56328    0.38564   1.00
H2       0.19750    0.53468    0.34380   1.00
H2       0.15767    0.52648    0.37572   1.00
H2       0.21626    0.49138    0.46163   1.00
H2       0.19596    0.53692    0.45104   1.00
H2       0.16798    0.49450    0.44287   1.00
H2       0.13612    0.44486    0.39455   1.00
H2       0.12363    0.41292    0.35605   1.00
H2       0.15488    0.39668    0.39229   1.00
H2       0.14188    0.48098    0.32712   1.00
H2       0.18589    0.47932    0.30140   1.00
H2       0.15192    0.44172    0.29567   1.00
H2       0.33515    0.48312    0.27439   1.00
H2       0.38632    0.48191    0.27368   1.00
H2       0.36133    0.46952    0.31658   1.00
H2       0.38123    0.54875    0.24489   1.00
H2       0.33092    0.55426    0.25222   1.00
H2       0.36401    0.58878    0.27138   1.00
H2       0.31165    0.64798    0.38155   1.00
H2       0.28279    0.60565    0.38232   1.00
H2       0.32343    0.60965    0.41389   1.00
H2       0.40136    0.60584    0.33567   1.00
H2       0.37969    0.64788    0.35537   1.00
H2       0.39286    0.60915    0.38660   1.00
H2       0.33927    0.46344    0.38067   1.00
H2       0.34952    0.47619    0.42963   1.00
H2       0.30605    0.49166    0.40773   1.00
H2       0.41119    0.50956    0.41846   1.00
H2       0.40965    0.49378    0.36947   1.00
H2       0.41806    0.54343    0.38077   1.00
C4       0.24719    0.75117    -0.02084   1.00
C4       0.24745    0.75049    0.02088   1.00
C3       0.21310    0.74529    -0.04364   1.00
C3       0.21447    0.74037    0.04384   1.00
C3       0.28296    0.75747    -0.04123   1.00
C3       0.28244    0.76053    0.04114   1.00
C2       0.24943    0.75105    -0.10512   1.00
C2       0.25057    0.74895    0.10512   1.00
C3       0.21419    0.74500    -0.08462   1.00
C3       0.21586    0.73996    0.08481   1.00
C3       0.28333    0.75781    -0.08258   1.00
C3       0.28369    0.75832    0.08238   1.00
H1       0.18645    0.74117    -0.03115   1.00
H1       0.18854    0.73275    0.03148   1.00
C5       0.31811    0.76357    -0.02020   1.00
C5       0.31608    0.77238    0.02020   1.00
H1       0.18866    0.74031    -0.09955   1.00
H1       0.19101    0.73274    0.09990   1.00
H1       0.30900    0.76344    -0.09680   1.00
H1       0.30962    0.76317    0.09632   1.00
O3       0.35332    0.76312    -0.03961   1.00
O3       0.34739    0.78948    0.03901   1.00
Si1      0.37830    0.72264    -0.04247   1.00
Si1      0.34647    0.83638    0.04721   1.00
C6       0.41413    0.73957    -0.07538   1.00
C6       0.39841    0.71365    0.00402   1.00
C6       0.35145    0.68351    -0.06253   1.00
C6       0.30449    0.86283    0.03307   1.00
C6       0.35223    0.83942    0.09802   1.00
C6       0.38836    0.85649    0.02523   1.00
C6       0.39855    0.76224    -0.11194   1.00
H2       0.42955    0.76131    -0.05791   1.00
C6       0.44656    0.71149    -0.09147   1.00
H2       0.39967    0.74295    0.01642   1.00
C6       0.37428    0.68867    0.03366   1.00
C6       0.44101    0.69739    0.00664   1.00
H2       0.33829    0.69692    -0.08831   1.00
C6       0.37513    0.64746    -0.07772   1.00
C6       0.31705    0.66499    -0.03849   1.00
C6       0.29173    0.86106    -0.01071   1.00
C6       0.26618    0.85921    0.05775   1.00
H2       0.31359    0.89297    0.03788   1.00
H2       0.32470    0.82827    0.10949   1.00
C6       0.38461    0.81279    0.11622   1.00
C6       0.35786    0.88095    0.11607   1.00
H2       0.41161    0.85078    0.04625   1.00
C6       0.40231    0.83685    -0.01336   1.00
C6       0.38911    0.90154    0.01756   1.00
H2       0.38019    0.78688    -0.10346   1.00
H2       0.38137    0.74320    -0.13090   1.00
H2       0.42257    0.77425    -0.12917   1.00
H2       0.47369    0.72765    -0.09608   1.00
H2       0.45303    0.68748    -0.07178   1.00
H2       0.43870    0.69883    -0.11964   1.00
H2       0.38564    0.69221    0.06328   1.00
H2       0.34380    0.69750    0.03468   1.00
H2       0.37572    0.65767    0.02648   1.00
H2       0.46163    0.71626    -0.00862   1.00
H2       0.45104    0.69596    0.03692   1.00
H2       0.44287    0.66798    -0.00550   1.00
H2       0.39455    0.63612    -0.05514   1.00
H2       0.35605    0.62363    -0.08708   1.00
H2       0.39229    0.65488    -0.10332   1.00
H2       0.32712    0.64188    -0.01902   1.00
H2       0.30140    0.68589    -0.02068   1.00
H2       0.29567    0.65192    -0.05828   1.00
H2       0.27439    0.83515    -0.01688   1.00
H2       0.27368    0.88632    -0.01809   1.00
H2       0.31658    0.86133    -0.03048   1.00
H2       0.24489    0.88123    0.04875   1.00
H2       0.25222    0.83092    0.05426   1.00
H2       0.27138    0.86401    0.08878   1.00
H2       0.38155    0.81165    0.14798   1.00
H2       0.38232    0.78279    0.10565   1.00
H2       0.41389    0.82343    0.10965   1.00
H2       0.33567    0.90136    0.10584   1.00
H2       0.35537    0.87969    0.14788   1.00
H2       0.38660    0.89286    0.10915   1.00
H2       0.38067    0.83927    -0.03656   1.00
H2       0.42963    0.84952    -0.02381   1.00
H2       0.40773    0.80605    -0.00834   1.00
H2       0.41846    0.91119    0.00956   1.00
H2       0.36947    0.90965    -0.00622   1.00
H2       0.38077    0.91806    0.04343   1.00
C4       0.74719    0.24883    0.52084   1.00
C4       0.74745    0.24951    0.47912   1.00
C3       0.71310    0.25471    0.54364   1.00
C3       0.71447    0.25963    0.45616   1.00
C3       0.78296    0.24253    0.54123   1.00
C3       0.78244    0.23947    0.45886   1.00
C2       0.74943    0.24895    0.60512   1.00
C2       0.75057    0.25105    0.39488   1.00
C3       0.71419    0.25500    0.58462   1.00
C3       0.71586    0.26004    0.41519   1.00
C3       0.78333    0.24219    0.58258   1.00
C3       0.78369    0.24168    0.41762   1.00
H1       0.68645    0.25883    0.53115   1.00
H1       0.68854    0.26725    0.46852   1.00
C5       0.81811    0.23643    0.52020   1.00
C5       0.81608    0.22762    0.47980   1.00
H1       0.68866    0.25969    0.59955   1.00
H1       0.69101    0.26726    0.40010   1.00
H1       0.80900    0.23656    0.59680   1.00
H1       0.80962    0.23683    0.40368   1.00
O3       0.85332    0.23688    0.53961   1.00
O3       0.84739    0.21052    0.46099   1.00
Si1      0.87830    0.27736    0.54247   1.00
Si1      0.84647    0.16362    0.45279   1.00
C6       0.91413    0.26043    0.57538   1.00
C6       0.89841    0.28635    0.49598   1.00
C6       0.85145    0.31649    0.56253   1.00
C6       0.80449    0.13717    0.46693   1.00
C6       0.85223    0.16058    0.40198   1.00
C6       0.88836    0.14351    0.47477   1.00
C6       0.89855    0.23776    0.61194   1.00
H2       0.92955    0.23869    0.55791   1.00
C6       0.94656    0.28851    0.59147   1.00
H2       0.89967    0.25705    0.48358   1.00
C6       0.87428    0.31133    0.46634   1.00
C6       0.94101    0.30261    0.49336   1.00
H2       0.83829    0.30308    0.58831   1.00
C6       0.87513    0.35254    0.57772   1.00
C6       0.81705    0.33501    0.53849   1.00
C6       0.79173    0.13894    0.51071   1.00
C6       0.76618    0.14079    0.44225   1.00
H2       0.81359    0.10703    0.46212   1.00
H2       0.82470    0.17173    0.39051   1.00
C6       0.88461    0.18721    0.38378   1.00
C6       0.85786    0.11905    0.38393   1.00
H2       0.91161    0.14922    0.45375   1.00
C6       0.90231    0.16315    0.51336   1.00
C6       0.88911    0.09846    0.48244   1.00
H2       0.88019    0.21312    0.60346   1.00
H2       0.88137    0.25680    0.63090   1.00
H2       0.92257    0.22575    0.62917   1.00
H2       0.97369    0.27235    0.59608   1.00
H2       0.95303    0.31252    0.57178   1.00
H2       0.93870    0.30117    0.61964   1.00
H2       0.88564    0.30779    0.43672   1.00
H2       0.84380    0.30250    0.46532   1.00
H2       0.87572    0.34233    0.47352   1.00
H2       0.96163    0.28374    0.50862   1.00
H2       0.95104    0.30404    0.46308   1.00
H2       0.94287    0.33202    0.50550   1.00
H2       0.89455    0.36388    0.55514   1.00
H2       0.85605    0.37637    0.58708   1.00
H2       0.89229    0.34512    0.60332   1.00
H2       0.82712    0.35812    0.51902   1.00
H2       0.80140    0.31411    0.52068   1.00
H2       0.79567    0.34808    0.55828   1.00
H2       0.77439    0.16485    0.51688   1.00
H2       0.77368    0.11368    0.51809   1.00
H2       0.81658    0.13867    0.53048   1.00
H2       0.74489    0.11877    0.45125   1.00
H2       0.75222    0.16908    0.44574   1.00
H2       0.77138    0.13599    0.41122   1.00
H2       0.88155    0.18835    0.35202   1.00
H2       0.88232    0.21721    0.39435   1.00
H2       0.91389    0.17657    0.39035   1.00
H2       0.83567    0.09864    0.39416   1.00
H2       0.85537    0.12031    0.35212   1.00
H2       0.88660    0.10714    0.39085   1.00
H2       0.88067    0.16073    0.53656   1.00
H2       0.92963    0.15048    0.52381   1.00
H2       0.90773    0.19395    0.50834   1.00
H2       0.91846    0.08881    0.49044   1.00
H2       0.86947    0.09035    0.50622   1.00
H2       0.88077    0.08194    0.45657   1.00
C4       0.74883    0.52084    0.24719   1.00
C4       0.74951    0.47912    0.24745   1.00
C3       0.75471    0.54364    0.21310   1.00
C3       0.75963    0.45616    0.21447   1.00
C3       0.74253    0.54123    0.28296   1.00
C3       0.73947    0.45886    0.28244   1.00
C2       0.74895    0.60512    0.24943   1.00
C2       0.75105    0.39488    0.25057   1.00
C3       0.75500    0.58462    0.21419   1.00
C3       0.76004    0.41519    0.21586   1.00
C3       0.74219    0.58258    0.28333   1.00
C3       0.74168    0.41762    0.28369   1.00
H1       0.75883    0.53115    0.18645   1.00
H1       0.76725    0.46852    0.18854   1.00
C5       0.73643    0.52020    0.31811   1.00
C5       0.72762    0.47980    0.31608   1.00
H1       0.75969    0.59955    0.18866   1.00
H1       0.76726    0.40010    0.19101   1.00
H1       0.73656    0.59680    0.30900   1.00
H1       0.73683    0.40368    0.30962   1.00
O3       0.73688    0.53961    0.35332   1.00
O3       0.71052    0.46099    0.34739   1.00
Si1      0.77736    0.54247    0.37830   1.00
Si1      0.66362    0.45279    0.34647   1.00
C6       0.76043    0.57538    0.41413   1.00
C6       0.78635    0.49598    0.39841   1.00
C6       0.81649    0.56253    0.35145   1.00
C6       0.63717    0.46693    0.30449   1.00
C6       0.66058    0.40198    0.35223   1.00
C6       0.64351    0.47477    0.38836   1.00
C6       0.73776    0.61194    0.39855   1.00
H2       0.73869    0.55791    0.42955   1.00
C6       0.78851    0.59147    0.44656   1.00
H2       0.75705    0.48358    0.39967   1.00
C6       0.81133    0.46634    0.37428   1.00
C6       0.80261    0.49336    0.44101   1.00
H2       0.80308    0.58831    0.33829   1.00
C6       0.85254    0.57772    0.37513   1.00
C6       0.83501    0.53849    0.31705   1.00
C6       0.63894    0.51071    0.29173   1.00
C6       0.64079    0.44225    0.26618   1.00
H2       0.60703    0.46212    0.31359   1.00
H2       0.67173    0.39051    0.32470   1.00
C6       0.68721    0.38378    0.38461   1.00
C6       0.61905    0.38393    0.35786   1.00
H2       0.64922    0.45375    0.41161   1.00
C6       0.66315    0.51336    0.40231   1.00
C6       0.59846    0.48244    0.38911   1.00
H2       0.71312    0.60346    0.38019   1.00
H2       0.75680    0.63090    0.38137   1.00
H2       0.72575    0.62917    0.42257   1.00
H2       0.77235    0.59608    0.47369   1.00
H2       0.81252    0.57178    0.45303   1.00
H2       0.80117    0.61964    0.43870   1.00
H2       0.80779    0.43672    0.38564   1.00
H2       0.80250    0.46532    0.34380   1.00
H2       0.84233    0.47352    0.37572   1.00
H2       0.78374    0.50862    0.46163   1.00
H2       0.80404    0.46308    0.45104   1.00
H2       0.83202    0.50550    0.44287   1.00
H2       0.86388    0.55514    0.39455   1.00
H2       0.87637    0.58708    0.35605   1.00
H2       0.84512    0.60332    0.39229   1.00
H2       0.85812    0.51902    0.32712   1.00
H2       0.81411    0.52068    0.30140   1.00
H2       0.84808    0.55828    0.29567   1.00
H2       0.66485    0.51688    0.27439   1.00
H2       0.61368    0.51809    0.27368   1.00
H2       0.63867    0.53048    0.31658   1.00
H2       0.61877    0.45125    0.24489   1.00
H2       0.66908    0.44574    0.25222   1.00
H2       0.63599    0.41122    0.27138   1.00
H2       0.68835    0.35202    0.38155   1.00
H2       0.71721    0.39435    0.38232   1.00
H2       0.67657    0.39035    0.41389   1.00
H2       0.59864    0.39416    0.33567   1.00
H2       0.62031    0.35212    0.35537   1.00
H2       0.60714    0.39085    0.38660   1.00
H2       0.66073    0.53656    0.38067   1.00
H2       0.65048    0.52381    0.42963   1.00
H2       0.69395    0.50834    0.40773   1.00
H2       0.58881    0.49044    0.41846   1.00
H2       0.59035    0.50622    0.36947   1.00
H2       0.58194    0.45657    0.38077   1.00
C4       0.47916    0.24719    0.25117   1.00
C4       0.52088    0.24745    0.25049   1.00
C3       0.45636    0.21310    0.24529   1.00
C3       0.54384    0.21447    0.24037   1.00
C3       0.45877    0.28296    0.25747   1.00
C3       0.54114    0.28244    0.26053   1.00
C2       0.39488    0.24943    0.25105   1.00
C2       0.60512    0.25057    0.24895   1.00
C3       0.41538    0.21419    0.24500   1.00
C3       0.58481    0.21586    0.23996   1.00
C3       0.41742    0.28333    0.25781   1.00
C3       0.58238    0.28369    0.25832   1.00
H1       0.46885    0.18645    0.24117   1.00
H1       0.53148    0.18854    0.23275   1.00
C5       0.47980    0.31811    0.26357   1.00
C5       0.52020    0.31608    0.27238   1.00
H1       0.40045    0.18866    0.24031   1.00
H1       0.59990    0.19101    0.23274   1.00
H1       0.40320    0.30900    0.26344   1.00
H1       0.59632    0.30962    0.26317   1.00
O3       0.46039    0.35332    0.26312   1.00
O3       0.53901    0.34739    0.28948   1.00
Si1      0.45753    0.37830    0.22264   1.00
Si1      0.54721    0.34647    0.33638   1.00
C6       0.42462    0.41413    0.23957   1.00
C6       0.50402    0.39841    0.21365   1.00
C6       0.43747    0.35145    0.18351   1.00
C6       0.53307    0.30449    0.36283   1.00
C6       0.59802    0.35223    0.33942   1.00
C6       0.52523    0.38836    0.35649   1.00
C6       0.38806    0.39855    0.26224   1.00
H2       0.44209    0.42955    0.26131   1.00
C6       0.40853    0.44656    0.21149   1.00
H2       0.51642    0.39967    0.24295   1.00
C6       0.53366    0.37428    0.18867   1.00
C6       0.50664    0.44101    0.19739   1.00
H2       0.41169    0.33829    0.19692   1.00
C6       0.42228    0.37513    0.14746   1.00
C6       0.46151    0.31705    0.16499   1.00
C6       0.48929    0.29173    0.36106   1.00
C6       0.55775    0.26618    0.35921   1.00
H2       0.53788    0.31359    0.39297   1.00
H2       0.60949    0.32470    0.32827   1.00
C6       0.61622    0.38461    0.31279   1.00
C6       0.61607    0.35786    0.38095   1.00
H2       0.54625    0.41161    0.35078   1.00
C6       0.48664    0.40231    0.33685   1.00
C6       0.51756    0.38911    0.40154   1.00
H2       0.39654    0.38019    0.28688   1.00
H2       0.36910    0.38137    0.24320   1.00
H2       0.37083    0.42257    0.27425   1.00
H2       0.40392    0.47369    0.22765   1.00
H2       0.42822    0.45303    0.18748   1.00
H2       0.38036    0.43870    0.19883   1.00
H2       0.56328    0.38564    0.19221   1.00
H2       0.53468    0.34380    0.19750   1.00
H2       0.52648    0.37572    0.15767   1.00
H2       0.49138    0.46163    0.21626   1.00
H2       0.53692    0.45104    0.19596   1.00
H2       0.49450    0.44287    0.16798   1.00
H2       0.44486    0.39455    0.13612   1.00
H2       0.41292    0.35605    0.12363   1.00
H2       0.39668    0.39229    0.15488   1.00
H2       0.48098    0.32712    0.14188   1.00
H2       0.47932    0.30140    0.18589   1.00
H2       0.44172    0.29567    0.15192   1.00
H2       0.48312    0.27439    0.33515   1.00
H2       0.48191    0.27368    0.38632   1.00
H2       0.46952    0.31658    0.36133   1.00
H2       0.54875    0.24489    0.38123   1.00
H2       0.55426    0.25222    0.33092   1.00
H2       0.58878    0.27138    0.36401   1.00
H2       0.64798    0.38155    0.31165   1.00
H2       0.60565    0.38232    0.28279   1.00
H2       0.60965    0.41389    0.32343   1.00
H2       0.60584    0.33567    0.40136   1.00
H2       0.64788    0.35537    0.37969   1.00
H2       0.60915    0.38660    0.39286   1.00
H2       0.46344    0.38067    0.33927   1.00
H2       0.47619    0.42963    0.34952   1.00
H2       0.49166    0.40773    0.30605   1.00
H2       0.50956    0.41846    0.41119   1.00
H2       0.49378    0.36947    0.40965   1.00
H2       0.54343    0.38077    0.41806   1.00
C4       1.02084    0.24719    0.24883   1.00
C4       0.97912    0.24745    0.24951   1.00
C3       1.04364    0.21310    0.25471   1.00
C3       0.95616    0.21447    0.25963   1.00
C3       1.04123    0.28296    0.24253   1.00
C3       0.95886    0.28244    0.23947   1.00
C2       1.10512    0.24943    0.24895   1.00
C2       0.89488    0.25057    0.25105   1.00
C3       1.08462    0.21419    0.25500   1.00
C3       0.91519    0.21586    0.26004   1.00
C3       1.08258    0.28333    0.24219   1.00
C3       0.91762    0.28369    0.24168   1.00
H1       1.03115    0.18645    0.25883   1.00
H1       0.96852    0.18854    0.26725   1.00
C5       1.02020    0.31811    0.23643   1.00
C5       0.97980    0.31608    0.22762   1.00
H1       1.09955    0.18866    0.25969   1.00
H1       0.90010    0.19101    0.26726   1.00
H1       1.09680    0.30900    0.23656   1.00
H1       0.90368    0.30962    0.23683   1.00
O3       1.03961    0.35332    0.23688   1.00
O3       0.96099    0.34739    0.21052   1.00
Si1      1.04247    0.37830    0.27736   1.00
Si1      0.95279    0.34647    0.16362   1.00
C6       1.07538    0.41413    0.26043   1.00
C6       0.99598    0.39841    0.28635   1.00
C6       1.06253    0.35145    0.31649   1.00
C6       0.96693    0.30449    0.13717   1.00
C6       0.90198    0.35223    0.16058   1.00
C6       0.97477    0.38836    0.14351   1.00
C6       1.11194    0.39855    0.23776   1.00
H2       1.05791    0.42955    0.23869   1.00
C6       1.09147    0.44656    0.28851   1.00
H2       0.98358    0.39967    0.25705   1.00
C6       0.96634    0.37428    0.31133   1.00
C6       0.99336    0.44101    0.30261   1.00
H2       1.08831    0.33829    0.30308   1.00
C6       1.07772    0.37513    0.35254   1.00
C6       1.03849    0.31705    0.33501   1.00
C6       1.01071    0.29173    0.13894   1.00
C6       0.94225    0.26618    0.14079   1.00
H2       0.96212    0.31359    0.10703   1.00
H2       0.89051    0.32470    0.17173   1.00
C6       0.88378    0.38461    0.18721   1.00
C6       0.88393    0.35786    0.11905   1.00
H2       0.95375    0.41161    0.14922   1.00
C6       1.01336    0.40231    0.16315   1.00
C6       0.98244    0.38911    0.09846   1.00
H2       1.10346    0.38019    0.21312   1.00
H2       1.13090    0.38137    0.25680   1.00
H2       1.12917    0.42257    0.22575   1.00
H2       1.09608    0.47369    0.27235   1.00
H2       1.07178    0.45303    0.31252   1.00
H2       1.11964    0.43870    0.30117   1.00
H2       0.93672    0.38564    0.30779   1.00
H2       0.96532    0.34380    0.30250   1.00
H2       0.97352    0.37572    0.34233   1.00
H2       1.00862    0.46163    0.28374   1.00
H2       0.96308    0.45104    0.30404   1.00
H2       1.00550    0.44287    0.33202   1.00
H2       1.05514    0.39455    0.36388   1.00
H2       1.08708    0.35605    0.37637   1.00
H2       1.10332    0.39229    0.34512   1.00
H2       1.01902    0.32712    0.35812   1.00
H2       1.02068    0.30140    0.31411   1.00
H2       1.05828    0.29567    0.34808   1.00
H2       1.01688    0.27439    0.16485   1.00
H2       1.01809    0.27368    0.11368   1.00
H2       1.03048    0.31658    0.13867   1.00
H2       0.95125    0.24489    0.11877   1.00
H2       0.94574    0.25222    0.16908   1.00
H2       0.91122    0.27138    0.13599   1.00
H2       0.85202    0.38155    0.18835   1.00
H2       0.89435    0.38232    0.21721   1.00
H2       0.89035    0.41389    0.17657   1.00
H2       0.89416    0.33567    0.09864   1.00
H2       0.85212    0.35537    0.12031   1.00
H2       0.89085    0.38660    0.10714   1.00
H2       1.03656    0.38067    0.16073   1.00
H2       1.02381    0.42963    0.15048   1.00
H2       1.00834    0.40773    0.19395   1.00
H2       0.99044    0.41846    0.08881   1.00
H2       1.00622    0.36947    0.09035   1.00
H2       0.95657    0.38077    0.08194   1.00
C4       0.75117    -0.02084   0.24719   1.00
C4       0.75049    0.02088    0.24745   1.00
C3       0.74529    -0.04364   0.21310   1.00
C3       0.74037    0.04384    0.21447   1.00
C3       0.75747    -0.04123   0.28296   1.00
C3       0.76053    0.04114    0.28244   1.00
C2       0.75105    -0.10512   0.24943   1.00
C2       0.74895    0.10512    0.25057   1.00
C3       0.74500    -0.08462   0.21419   1.00
C3       0.73996    0.08481    0.21586   1.00
C3       0.75781    -0.08258   0.28333   1.00
C3       0.75832    0.08238    0.28369   1.00
H1       0.74117    -0.03115   0.18645   1.00
H1       0.73275    0.03148    0.18854   1.00
C5       0.76357    -0.02020   0.31811   1.00
C5       0.77238    0.02020    0.31608   1.00
H1       0.74031    -0.09955   0.18866   1.00
H1       0.73274    0.09990    0.19101   1.00
H1       0.76344    -0.09680   0.30900   1.00
H1       0.76317    0.09632    0.30962   1.00
O3       0.76312    -0.03961   0.35332   1.00
O3       0.78948    0.03901    0.34739   1.00
Si1      0.72264    -0.04247   0.37830   1.00
Si1      0.83638    0.04721    0.34647   1.00
C6       0.73957    -0.07538   0.41413   1.00
C6       0.71365    0.00402    0.39841   1.00
C6       0.68351    -0.06253   0.35145   1.00
C6       0.86283    0.03307    0.30449   1.00
C6       0.83942    0.09802    0.35223   1.00
C6       0.85649    0.02523    0.38836   1.00
C6       0.76224    -0.11194   0.39855   1.00
H2       0.76131    -0.05791   0.42955   1.00
C6       0.71149    -0.09147   0.44656   1.00
H2       0.74295    0.01642    0.39967   1.00
C6       0.68867    0.03366    0.37428   1.00
C6       0.69739    0.00664    0.44101   1.00
H2       0.69692    -0.08831   0.33829   1.00
C6       0.64746    -0.07772   0.37513   1.00
C6       0.66499    -0.03849   0.31705   1.00
C6       0.86106    -0.01071   0.29173   1.00
C6       0.85921    0.05775    0.26618   1.00
H2       0.89297    0.03788    0.31359   1.00
H2       0.82827    0.10949    0.32470   1.00
C6       0.81279    0.11622    0.38461   1.00
C6       0.88095    0.11607    0.35786   1.00
H2       0.85078    0.04625    0.41161   1.00
C6       0.83685    -0.01336   0.40231   1.00
C6       0.90154    0.01756    0.38911   1.00
H2       0.78688    -0.10346   0.38019   1.00
H2       0.74320    -0.13090   0.38137   1.00
H2       0.77425    -0.12917   0.42257   1.00
H2       0.72765    -0.09608   0.47369   1.00
H2       0.68748    -0.07178   0.45303   1.00
H2       0.69883    -0.11964   0.43870   1.00
H2       0.69221    0.06328    0.38564   1.00
H2       0.69750    0.03468    0.34380   1.00
H2       0.65767    0.02648    0.37572   1.00
H2       0.71626    -0.00862   0.46163   1.00
H2       0.69596    0.03692    0.45104   1.00
H2       0.66798    -0.00550   0.44287   1.00
H2       0.63612    -0.05514   0.39455   1.00
H2       0.62363    -0.08708   0.35605   1.00
H2       0.65488    -0.10332   0.39229   1.00
H2       0.64188    -0.01902   0.32712   1.00
H2       0.68589    -0.02068   0.30140   1.00
H2       0.65192    -0.05828   0.29567   1.00
H2       0.83515    -0.01688   0.27439   1.00
H2       0.88632    -0.01809   0.27368   1.00
H2       0.86133    -0.03048   0.31658   1.00
H2       0.88123    0.04875    0.24489   1.00
H2       0.83092    0.05426    0.25222   1.00
H2       0.86401    0.08878    0.27138   1.00
H2       0.81165    0.14798    0.38155   1.00
H2       0.78279    0.10565    0.38232   1.00
H2       0.82343    0.10965    0.41389   1.00
H2       0.90136    0.10584    0.33567   1.00
H2       0.87969    0.14788    0.35537   1.00
H2       0.89286    0.10915    0.38660   1.00
H2       0.83927    -0.03656   0.38067   1.00
H2       0.84952    -0.02381   0.42963   1.00
H2       0.80605    -0.00834   0.40773   1.00
H2       0.91119    0.00956    0.41846   1.00
H2       0.90965    -0.00622   0.36947   1.00
H2       0.91806    0.04343    0.38077   1.00
C4       0.74719    0.25117    -0.02084   1.00
C4       0.74745    0.25049    0.02088   1.00
C3       0.71310    0.24529    -0.04364   1.00
C3       0.71447    0.24037    0.04384   1.00
C3       0.78296    0.25747    -0.04123   1.00
C3       0.78244    0.26053    0.04114   1.00
C2       0.74943    0.25105    -0.10512   1.00
C2       0.75057    0.24895    0.10512   1.00
C3       0.71419    0.24500    -0.08462   1.00
C3       0.71586    0.23996    0.08481   1.00
C3       0.78333    0.25781    -0.08258   1.00
C3       0.78369    0.25832    0.08238   1.00
H1       0.68645    0.24117    -0.03115   1.00
H1       0.68854    0.23275    0.03148   1.00
C5       0.81811    0.26357    -0.02020   1.00
C5       0.81608    0.27238    0.02020   1.00
H1       0.68866    0.24031    -0.09955   1.00
H1       0.69101    0.23274    0.09990   1.00
H1       0.80900    0.26344    -0.09680   1.00
H1       0.80962    0.26317    0.09632   1.00
O3       0.85332    0.26312    -0.03961   1.00
O3       0.84739    0.28948    0.03901   1.00
Si1      0.87830    0.22264    -0.04247   1.00
Si1      0.84647    0.33638    0.04721   1.00
C6       0.91413    0.23957    -0.07538   1.00
C6       0.89841    0.21365    0.00402   1.00
C6       0.85145    0.18351    -0.06253   1.00
C6       0.80449    0.36283    0.03307   1.00
C6       0.85223    0.33942    0.09802   1.00
C6       0.88836    0.35649    0.02523   1.00
C6       0.89855    0.26224    -0.11194   1.00
H2       0.92955    0.26131    -0.05791   1.00
C6       0.94656    0.21149    -0.09147   1.00
H2       0.89967    0.24295    0.01642   1.00
C6       0.87428    0.18867    0.03366   1.00
C6       0.94101    0.19739    0.00664   1.00
H2       0.83829    0.19692    -0.08831   1.00
C6       0.87513    0.14746    -0.07772   1.00
C6       0.81705    0.16499    -0.03849   1.00
C6       0.79173    0.36106    -0.01071   1.00
C6       0.76618    0.35921    0.05775   1.00
H2       0.81359    0.39297    0.03788   1.00
H2       0.82470    0.32827    0.10949   1.00
C6       0.88461    0.31279    0.11622   1.00
C6       0.85786    0.38095    0.11607   1.00
H2       0.91161    0.35078    0.04625   1.00
C6       0.90231    0.33685    -0.01336   1.00
C6       0.88911    0.40154    0.01756   1.00
H2       0.88019    0.28688    -0.10346   1.00
H2       0.88137    0.24320    -0.13090   1.00
H2       0.92257    0.27425    -0.12917   1.00
H2       0.97369    0.22765    -0.09608   1.00
H2       0.95303    0.18748    -0.07178   1.00
H2       0.93870    0.19883    -0.11964   1.00
H2       0.88564    0.19221    0.06328   1.00
H2       0.84380    0.19750    0.03468   1.00
H2       0.87572    0.15767    0.02648   1.00
H2       0.96163    0.21626    -0.00862   1.00
H2       0.95104    0.19596    0.03692   1.00
H2       0.94287    0.16798    -0.00550   1.00
H2       0.89455    0.13612    -0.05514   1.00
H2       0.85605    0.12363    -0.08708   1.00
H2       0.89229    0.15488    -0.10332   1.00
H2       0.82712    0.14188    -0.01902   1.00
H2       0.80140    0.18589    -0.02068   1.00
H2       0.79567    0.15192    -0.05828   1.00
H2       0.77439    0.33515    -0.01688   1.00
H2       0.77368    0.38632    -0.01809   1.00
H2       0.81658    0.36133    -0.03048   1.00
H2       0.74489    0.38123    0.04875   1.00
H2       0.75222    0.33092    0.05426   1.00
H2       0.77138    0.36401    0.08878   1.00
H2       0.88155    0.31165    0.14798   1.00
H2       0.88232    0.28279    0.10565   1.00
H2       0.91389    0.32343    0.10965   1.00
H2       0.83567    0.40136    0.10584   1.00
H2       0.85537    0.37969    0.14788   1.00
H2       0.88660    0.39286    0.10915   1.00
H2       0.88067    0.33927    -0.03656   1.00
H2       0.92963    0.34952    -0.02381   1.00
H2       0.90773    0.30605    -0.00834   1.00
H2       0.91846    0.41119    0.00956   1.00
H2       0.86947    0.40965    -0.00622   1.00
H2       0.88077    0.41806    0.04343   1.00
C4       0.91219    0.91383    1.18584   1.00
C4       0.91245    0.91451    1.14412   1.00
C3       0.87810    0.91971    1.20864   1.00
C3       0.87947    0.92463    1.12116   1.00
C3       0.94796    0.90753    1.20623   1.00
C3       0.94744    0.90447    1.12386   1.00
C2       0.91443    0.91395    1.27012   1.00
C2       0.91557    0.91605    1.05988   1.00
C3       0.87919    0.92000    1.24962   1.00
C3       0.88086    0.92504    1.08019   1.00
C3       0.94833    0.90719    1.24758   1.00
C3       0.94869    0.90668    1.08262   1.00
H1       0.85145    0.92383    1.19615   1.00
H1       0.85354    0.93225    1.13352   1.00
C5       0.98311    0.90143    1.18520   1.00
C5       0.98108    0.89262    1.14480   1.00
H1       0.85366    0.92469    1.26455   1.00
H1       0.85601    0.93226    1.06510   1.00
H1       0.97400    0.90156    1.26180   1.00
H1       0.97462    0.90183    1.06868   1.00
O3       1.01832    0.90188    1.20461   1.00
O3       1.01239    0.87552    1.12599   1.00
Si1      1.04330    0.94236    1.20747   1.00
Si1      1.01147    0.82862    1.11779   1.00
C6       1.07913    0.92543    1.24038   1.00
C6       1.06341    0.95135    1.16098   1.00
C6       1.01645    0.98149    1.22753   1.00
C6       0.96949    0.80217    1.13193   1.00
C6       1.01723    0.82558    1.06698   1.00
C6       1.05336    0.80851    1.13977   1.00
C6       1.06355    0.90276    1.27694   1.00
H2       1.09455    0.90369    1.22291   1.00
C6       1.11156    0.95351    1.25647   1.00
H2       1.06467    0.92205    1.14858   1.00
C6       1.03928    0.97633    1.13134   1.00
C6       1.10601    0.96761    1.15836   1.00
H2       1.00329    0.96808    1.25331   1.00
C6       1.04013    1.01754    1.24272   1.00
C6       0.98205    1.00001    1.20349   1.00
C6       0.95673    0.80394    1.17571   1.00
C6       0.93118    0.80579    1.10725   1.00
H2       0.97859    0.77203    1.12712   1.00
H2       0.98970    0.83673    1.05551   1.00
C6       1.04961    0.85221    1.04878   1.00
C6       1.02286    0.78405    1.04893   1.00
H2       1.07661    0.81422    1.11875   1.00
C6       1.06731    0.82815    1.17836   1.00
C6       1.05411    0.76346    1.14744   1.00
H2       1.04519    0.87812    1.26846   1.00
H2       1.04637    0.92180    1.29590   1.00
H2       1.08757    0.89075    1.29417   1.00
H2       1.13869    0.93735    1.26108   1.00
H2       1.11803    0.97752    1.23678   1.00
H2       1.10370    0.96617    1.28464   1.00
H2       1.05064    0.97279    1.10172   1.00
H2       1.00880    0.96750    1.13032   1.00
H2       1.04072    1.00733    1.13852   1.00
H2       1.12663    0.94874    1.17362   1.00
H2       1.11604    0.96904    1.12808   1.00
H2       1.10787    0.99702    1.17050   1.00
H2       1.05955    1.02888    1.22014   1.00
H2       1.02105    1.04137    1.25208   1.00
H2       1.05729    1.01012    1.26832   1.00
H2       0.99212    1.02312    1.18402   1.00
H2       0.96640    0.97911    1.18568   1.00
H2       0.96067    1.01308    1.22328   1.00
H2       0.93939    0.82985    1.18188   1.00
H2       0.93868    0.77868    1.18309   1.00
H2       0.98158    0.80367    1.19548   1.00
H2       0.90989    0.78377    1.11625   1.00
H2       0.91722    0.83408    1.11074   1.00
H2       0.93638    0.80099    1.07622   1.00
H2       1.04655    0.85335    1.01702   1.00
H2       1.04732    0.88221    1.05935   1.00
H2       1.07889    0.84157    1.05535   1.00
H2       1.00067    0.76364    1.05916   1.00
H2       1.02037    0.78531    1.01712   1.00
H2       1.05160    0.77214    1.05585   1.00
H2       1.04567    0.82573    1.20156   1.00
H2       1.09463    0.81548    1.18881   1.00
H2       1.07273    0.85895    1.17334   1.00
H2       1.08346    0.75381    1.15544   1.00
H2       1.03447    0.75535    1.17122   1.00
H2       1.04577    0.74694    1.12157   1.00
C4       0.91383    1.18584    0.91219   1.00
C4       0.91451    1.14412    0.91245   1.00
C3       0.91971    1.20864    0.87810   1.00
C3       0.92463    1.12116    0.87947   1.00
C3       0.90753    1.20623    0.94796   1.00
C3       0.90447    1.12386    0.94744   1.00
C2       0.91395    1.27012    0.91443   1.00
C2       0.91605    1.05988    0.91557   1.00
C3       0.92000    1.24962    0.87919   1.00
C3       0.92504    1.08019    0.88086   1.00
C3       0.90719    1.24758    0.94833   1.00
C3       0.90668    1.08262    0.94869   1.00
H1       0.92383    1.19615    0.85145   1.00
H1       0.93225    1.13352    0.85354   1.00
C5       0.90143    1.18520    0.98311   1.00
C5       0.89262    1.14480    0.98108   1.00
H1       0.92469    1.26455    0.85366   1.00
H1       0.93226    1.06510    0.85601   1.00
H1       0.90156    1.26180    0.97400   1.00
H1       0.90183    1.06868    0.97462   1.00
O3       0.90188    1.20461    1.01832   1.00
O3       0.87552    1.12599    1.01239   1.00
Si1      0.94236    1.20747    1.04330   1.00
Si1      0.82862    1.11779    1.01147   1.00
C6       0.92543    1.24038    1.07913   1.00
C6       0.95135    1.16098    1.06341   1.00
C6       0.98149    1.22753    1.01645   1.00
C6       0.80217    1.13193    0.96949   1.00
C6       0.82558    1.06698    1.01723   1.00
C6       0.80851    1.13977    1.05336   1.00
C6       0.90276    1.27694    1.06355   1.00
H2       0.90369    1.22291    1.09455   1.00
C6       0.95351    1.25647    1.11156   1.00
H2       0.92205    1.14858    1.06467   1.00
C6       0.97633    1.13134    1.03928   1.00
C6       0.96761    1.15836    1.10601   1.00
H2       0.96808    1.25331    1.00329   1.00
C6       1.01754    1.24272    1.04013   1.00
C6       1.00001    1.20349    0.98205   1.00
C6       0.80394    1.17571    0.95673   1.00
C6       0.80579    1.10725    0.93118   1.00
H2       0.77203    1.12712    0.97859   1.00
H2       0.83673    1.05551    0.98970   1.00
C6       0.85221    1.04878    1.04961   1.00
C6       0.78405    1.04893    1.02286   1.00
H2       0.81422    1.11875    1.07661   1.00
C6       0.82815    1.17836    1.06731   1.00
C6       0.76346    1.14744    1.05411   1.00
H2       0.87812    1.26846    1.04519   1.00
H2       0.92180    1.29590    1.04637   1.00
H2       0.89075    1.29417    1.08757   1.00
H2       0.93735    1.26108    1.13869   1.00
H2       0.97752    1.23678    1.11803   1.00
H2       0.96617    1.28464    1.10370   1.00
H2       0.97279    1.10172    1.05064   1.00
H2       0.96750    1.13032    1.00880   1.00
H2       1.00733    1.13852    1.04072   1.00
H2       0.94874    1.17362    1.12663   1.00
H2       0.96904    1.12808    1.11604   1.00
H2       0.99702    1.17050    1.10787   1.00
H2       1.02888    1.22014    1.05955   1.00
H2       1.04137    1.25208    1.02105   1.00
H2       1.01012    1.26832    1.05729   1.00
H2       1.02312    1.18402    0.99212   1.00
H2       0.97911    1.18568    0.96640   1.00
H2       1.01308    1.22328    0.96067   1.00
H2       0.82985    1.18188    0.93939   1.00
H2       0.77868    1.18309    0.93868   1.00
H2       0.80367    1.19548    0.98158   1.00
H2       0.78377    1.11625    0.90989   1.00
H2       0.83408    1.11074    0.91722   1.00
H2       0.80099    1.07622    0.93638   1.00
H2       0.85335    1.01702    1.04655   1.00
H2       0.88221    1.05935    1.04732   1.00
H2       0.84157    1.05535    1.07889   1.00
H2       0.76364    1.05916    1.00067   1.00
H2       0.78531    1.01712    1.02037   1.00
H2       0.77214    1.05585    1.05160   1.00
H2       0.82573    1.20156    1.04567   1.00
H2       0.81548    1.18881    1.09463   1.00
H2       0.85895    1.17334    1.07273   1.00
H2       0.75381    1.15544    1.08346   1.00
H2       0.75535    1.17122    1.03447   1.00
H2       0.74694    1.12157    1.04577   1.00
C4       0.64416    0.91219    0.91617   1.00
C4       0.68588    0.91245    0.91549   1.00
C3       0.62136    0.87810    0.91029   1.00
C3       0.70884    0.87947    0.90537   1.00
C3       0.62377    0.94796    0.92247   1.00
C3       0.70614    0.94744    0.92553   1.00
C2       0.55988    0.91443    0.91605   1.00
C2       0.77012    0.91557    0.91395   1.00
C3       0.58038    0.87919    0.91000   1.00
C3       0.74981    0.88086    0.90496   1.00
C3       0.58242    0.94833    0.92281   1.00
C3       0.74738    0.94869    0.92332   1.00
H1       0.63385    0.85145    0.90617   1.00
H1       0.69648    0.85354    0.89775   1.00
C5       0.64480    0.98311    0.92857   1.00
C5       0.68520    0.98108    0.93738   1.00
H1       0.56545    0.85366    0.90531   1.00
H1       0.76490    0.85601    0.89774   1.00
H1       0.56820    0.97400    0.92844   1.00
H1       0.76132    0.97462    0.92817   1.00
O3       0.62539    1.01832    0.92812   1.00
O3       0.70401    1.01239    0.95448   1.00
Si1      0.62253    1.04330    0.88764   1.00
Si1      0.71221    1.01147    1.00138   1.00
C6       0.58962    1.07913    0.90457   1.00
C6       0.66902    1.06341    0.87865   1.00
C6       0.60247    1.01645    0.84851   1.00
C6       0.69807    0.96949    1.02783   1.00
C6       0.76302    1.01723    1.00442   1.00
C6       0.69023    1.05336    1.02149   1.00
C6       0.55306    1.06355    0.92724   1.00
H2       0.60709    1.09455    0.92631   1.00
C6       0.57353    1.11156    0.87649   1.00
H2       0.68142    1.06467    0.90795   1.00
C6       0.69866    1.03928    0.85367   1.00
C6       0.67164    1.10601    0.86239   1.00
H2       0.57669    1.00329    0.86192   1.00
C6       0.58728    1.04013    0.81246   1.00
C6       0.62651    0.98205    0.82999   1.00
C6       0.65429    0.95673    1.02606   1.00
C6       0.72275    0.93118    1.02421   1.00
H2       0.70288    0.97859    1.05797   1.00
H2       0.77449    0.98970    0.99327   1.00
C6       0.78122    1.04961    0.97779   1.00
C6       0.78107    1.02286    1.04595   1.00
H2       0.71125    1.07661    1.01578   1.00
C6       0.65164    1.06731    1.00185   1.00
C6       0.68256    1.05411    1.06654   1.00
H2       0.56154    1.04519    0.95188   1.00
H2       0.53410    1.04637    0.90820   1.00
H2       0.53583    1.08757    0.93925   1.00
H2       0.56892    1.13869    0.89265   1.00
H2       0.59322    1.11803    0.85248   1.00
H2       0.54536    1.10370    0.86383   1.00
H2       0.72828    1.05064    0.85721   1.00
H2       0.69968    1.00880    0.86250   1.00
H2       0.69148    1.04072    0.82267   1.00
H2       0.65638    1.12663    0.88126   1.00
H2       0.70192    1.11604    0.86096   1.00
H2       0.65950    1.10787    0.83298   1.00
H2       0.60986    1.05955    0.80112   1.00
H2       0.57792    1.02105    0.78863   1.00
H2       0.56168    1.05729    0.81988   1.00
H2       0.64598    0.99212    0.80688   1.00
H2       0.64432    0.96640    0.85089   1.00
H2       0.60672    0.96067    0.81692   1.00
H2       0.64812    0.93939    1.00015   1.00
H2       0.64691    0.93868    1.05132   1.00
H2       0.63452    0.98158    1.02633   1.00
H2       0.71375    0.90989    1.04623   1.00
H2       0.71926    0.91722    0.99592   1.00
H2       0.75378    0.93638    1.02901   1.00
H2       0.81298    1.04655    0.97665   1.00
H2       0.77065    1.04732    0.94779   1.00
H2       0.77465    1.07889    0.98843   1.00
H2       0.77084    1.00067    1.06636   1.00
H2       0.81288    1.02037    1.04469   1.00
H2       0.77415    1.05160    1.05786   1.00
H2       0.62844    1.04567    1.00427   1.00
H2       0.64119    1.09463    1.01452   1.00
H2       0.65666    1.07273    0.97105   1.00
H2       0.67456    1.08346    1.07619   1.00
H2       0.65878    1.03447    1.07465   1.00
H2       0.70843    1.04577    1.08306   1.00
C4       1.18584    0.91219    0.91383   1.00
C4       1.14412    0.91245    0.91451   1.00
C3       1.20864    0.87810    0.91971   1.00
C3       1.12116    0.87947    0.92463   1.00
C3       1.20623    0.94796    0.90753   1.00
C3       1.12386    0.94744    0.90447   1.00
C2       1.27012    0.91443    0.91395   1.00
C2       1.05988    0.91557    0.91605   1.00
C3       1.24962    0.87919    0.92000   1.00
C3       1.08019    0.88086    0.92504   1.00
C3       1.24758    0.94833    0.90719   1.00
C3       1.08262    0.94869    0.90668   1.00
H1       1.19615    0.85145    0.92383   1.00
H1       1.13352    0.85354    0.93225   1.00
C5       1.18520    0.98311    0.90143   1.00
C5       1.14480    0.98108    0.89262   1.00
H1       1.26455    0.85366    0.92469   1.00
H1       1.06510    0.85601    0.93226   1.00
H1       1.26180    0.97400    0.90156   1.00
H1       1.06868    0.97462    0.90183   1.00
O3       1.20461    1.01832    0.90188   1.00
O3       1.12599    1.01239    0.87552   1.00
Si1      1.20747    1.04330    0.94236   1.00
Si1      1.11779    1.01147    0.82862   1.00
C6       1.24038    1.07913    0.92543   1.00
C6       1.16098    1.06341    0.95135   1.00
C6       1.22753    1.01645    0.98149   1.00
C6       1.13193    0.96949    0.80217   1.00
C6       1.06698    1.01723    0.82558   1.00
C6       1.13977    1.05336    0.80851   1.00
C6       1.27694    1.06355    0.90276   1.00
H2       1.22291    1.09455    0.90369   1.00
C6       1.25647    1.11156    0.95351   1.00
H2       1.14858    1.06467    0.92205   1.00
C6       1.13134    1.03928    0.97633   1.00
C6       1.15836    1.10601    0.96761   1.00
H2       1.25331    1.00329    0.96808   1.00
C6       1.24272    1.04013    1.01754   1.00
C6       1.20349    0.98205    1.00001   1.00
C6       1.17571    0.95673    0.80394   1.00
C6       1.10725    0.93118    0.80579   1.00
H2       1.12712    0.97859    0.77203   1.00
H2       1.05551    0.98970    0.83673   1.00
C6       1.04878    1.04961    0.85221   1.00
C6       1.04893    1.02286    0.78405   1.00
H2       1.11875    1.07661    0.81422   1.00
C6       1.17836    1.06731    0.82815   1.00
C6       1.14744    1.05411    0.76346   1.00
H2       1.26846    1.04519    0.87812   1.00
H2       1.29590    1.04637    0.92180   1.00
H2       1.29417    1.08757    0.89075   1.00
H2       1.26108    1.13869    0.93735   1.00
H2       1.23678    1.11803    0.97752   1.00
H2       1.28464    1.10370    0.96617   1.00
H2       1.10172    1.05064    0.97279   1.00
H2       1.13032    1.00880    0.96750   1.00
H2       1.13852    1.04072    1.00733   1.00
H2       1.17362    1.12663    0.94874   1.00
H2       1.12808    1.11604    0.96904   1.00
H2       1.17050    1.10787    0.99702   1.00
H2       1.22014    1.05955    1.02888   1.00
H2       1.25208    1.02105    1.04137   1.00
H2       1.26832    1.05729    1.01012   1.00
H2       1.18402    0.99212    1.02312   1.00
H2       1.18568    0.96640    0.97911   1.00
H2       1.22328    0.96067    1.01308   1.00
H2       1.18188    0.93939    0.82985   1.00
H2       1.18309    0.93868    0.77868   1.00
H2       1.19548    0.98158    0.80367   1.00
H2       1.11625    0.90989    0.78377   1.00
H2       1.11074    0.91722    0.83408   1.00
H2       1.07622    0.93638    0.80099   1.00
H2       1.01702    1.04655    0.85335   1.00
H2       1.05935    1.04732    0.88221   1.00
H2       1.05535    1.07889    0.84157   1.00
H2       1.05916    1.00067    0.76364   1.00
H2       1.01712    1.02037    0.78531   1.00
H2       1.05585    1.05160    0.77214   1.00
H2       1.20156    1.04567    0.82573   1.00
H2       1.18881    1.09463    0.81548   1.00
H2       1.17334    1.07273    0.85895   1.00
H2       1.15544    1.08346    0.75381   1.00
H2       1.17122    1.03447    0.75535   1.00
H2       1.12157    1.04577    0.74694   1.00
C4       0.91617    0.64416    0.91219   1.00
C4       0.91549    0.68588    0.91245   1.00
C3       0.91029    0.62136    0.87810   1.00
C3       0.90537    0.70884    0.87947   1.00
C3       0.92247    0.62377    0.94796   1.00
C3       0.92553    0.70614    0.94744   1.00
C2       0.91605    0.55988    0.91443   1.00
C2       0.91395    0.77012    0.91557   1.00
C3       0.91000    0.58038    0.87919   1.00
C3       0.90496    0.74981    0.88086   1.00
C3       0.92281    0.58242    0.94833   1.00
C3       0.92332    0.74738    0.94869   1.00
H1       0.90617    0.63385    0.85145   1.00
H1       0.89775    0.69648    0.85354   1.00
C5       0.92857    0.64480    0.98311   1.00
C5       0.93738    0.68520    0.98108   1.00
H1       0.90531    0.56545    0.85366   1.00
H1       0.89774    0.76490    0.85601   1.00
H1       0.92844    0.56820    0.97400   1.00
H1       0.92817    0.76132    0.97462   1.00
O3       0.92812    0.62539    1.01832   1.00
O3       0.95448    0.70401    1.01239   1.00
Si1      0.88764    0.62253    1.04330   1.00
Si1      1.00138    0.71221    1.01147   1.00
C6       0.90457    0.58962    1.07913   1.00
C6       0.87865    0.66902    1.06341   1.00
C6       0.84851    0.60247    1.01645   1.00
C6       1.02783    0.69807    0.96949   1.00
C6       1.00442    0.76302    1.01723   1.00
C6       1.02149    0.69023    1.05336   1.00
C6       0.92724    0.55306    1.06355   1.00
H2       0.92631    0.60709    1.09455   1.00
C6       0.87649    0.57353    1.11156   1.00
H2       0.90795    0.68142    1.06467   1.00
C6       0.85367    0.69866    1.03928   1.00
C6       0.86239    0.67164    1.10601   1.00
H2       0.86192    0.57669    1.00329   1.00
C6       0.81246    0.58728    1.04013   1.00
C6       0.82999    0.62651    0.98205   1.00
C6       1.02606    0.65429    0.95673   1.00
C6       1.02421    0.72275    0.93118   1.00
H2       1.05797    0.70288    0.97859   1.00
H2       0.99327    0.77449    0.98970   1.00
C6       0.97779    0.78122    1.04961   1.00
C6       1.04595    0.78107    1.02286   1.00
H2       1.01578    0.71125    1.07661   1.00
C6       1.00185    0.65164    1.06731   1.00
C6       1.06654    0.68256    1.05411   1.00
H2       0.95188    0.56154    1.04519   1.00
H2       0.90820    0.53410    1.04637   1.00
H2       0.93925    0.53583    1.08757   1.00
H2       0.89265    0.56892    1.13869   1.00
H2       0.85248    0.59322    1.11803   1.00
H2       0.86383    0.54536    1.10370   1.00
H2       0.85721    0.72828    1.05064   1.00
H2       0.86250    0.69968    1.00880   1.00
H2       0.82267    0.69148    1.04072   1.00
H2       0.88126    0.65638    1.12663   1.00
H2       0.86096    0.70192    1.11604   1.00
H2       0.83298    0.65950    1.10787   1.00
H2       0.80112    0.60986    1.05955   1.00
H2       0.78863    0.57792    1.02105   1.00
H2       0.81988    0.56168    1.05729   1.00
H2       0.80688    0.64598    0.99212   1.00
H2       0.85089    0.64432    0.96640   1.00
H2       0.81692    0.60672    0.96067   1.00
H2       1.00015    0.64812    0.93939   1.00
H2       1.05132    0.64691    0.93868   1.00
H2       1.02633    0.63452    0.98158   1.00
H2       1.04623    0.71375    0.90989   1.00
H2       0.99592    0.71926    0.91722   1.00
H2       1.02901    0.75378    0.93638   1.00
H2       0.97665    0.81298    1.04655   1.00
H2       0.94779    0.77065    1.04732   1.00
H2       0.98843    0.77465    1.07889   1.00
H2       1.06636    0.77084    1.00067   1.00
H2       1.04469    0.81288    1.02037   1.00
H2       1.05786    0.77415    1.05160   1.00
H2       1.00427    0.62844    1.04567   1.00
H2       1.01452    0.64119    1.09463   1.00
H2       0.97105    0.65666    1.07273   1.00
H2       1.07619    0.67456    1.08346   1.00
H2       1.07465    0.65878    1.03447   1.00
H2       1.08306    0.70843    1.04577   1.00
C4       0.91219    0.91617    0.64416   1.00
C4       0.91245    0.91549    0.68588   1.00
C3       0.87810    0.91029    0.62136   1.00
C3       0.87947    0.90537    0.70884   1.00
C3       0.94796    0.92247    0.62377   1.00
C3       0.94744    0.92553    0.70614   1.00
C2       0.91443    0.91605    0.55988   1.00
C2       0.91557    0.91395    0.77012   1.00
C3       0.87919    0.91000    0.58038   1.00
C3       0.88086    0.90496    0.74981   1.00
C3       0.94833    0.92281    0.58242   1.00
C3       0.94869    0.92332    0.74738   1.00
H1       0.85145    0.90617    0.63385   1.00
H1       0.85354    0.89775    0.69648   1.00
C5       0.98311    0.92857    0.64480   1.00
C5       0.98108    0.93738    0.68520   1.00
H1       0.85366    0.90531    0.56545   1.00
H1       0.85601    0.89774    0.76490   1.00
H1       0.97400    0.92844    0.56820   1.00
H1       0.97462    0.92817    0.76132   1.00
O3       1.01832    0.92812    0.62539   1.00
O3       1.01239    0.95448    0.70401   1.00
Si1      1.04330    0.88764    0.62253   1.00
Si1      1.01147    1.00138    0.71221   1.00
C6       1.07913    0.90457    0.58962   1.00
C6       1.06341    0.87865    0.66902   1.00
C6       1.01645    0.84851    0.60247   1.00
C6       0.96949    1.02783    0.69807   1.00
C6       1.01723    1.00442    0.76302   1.00
C6       1.05336    1.02149    0.69023   1.00
C6       1.06355    0.92724    0.55306   1.00
H2       1.09455    0.92631    0.60709   1.00
C6       1.11156    0.87649    0.57353   1.00
H2       1.06467    0.90795    0.68142   1.00
C6       1.03928    0.85367    0.69866   1.00
C6       1.10601    0.86239    0.67164   1.00
H2       1.00329    0.86192    0.57669   1.00
C6       1.04013    0.81246    0.58728   1.00
C6       0.98205    0.82999    0.62651   1.00
C6       0.95673    1.02606    0.65429   1.00
C6       0.93118    1.02421    0.72275   1.00
H2       0.97859    1.05797    0.70288   1.00
H2       0.98970    0.99327    0.77449   1.00
C6       1.04961    0.97779    0.78122   1.00
C6       1.02286    1.04595    0.78107   1.00
H2       1.07661    1.01578    0.71125   1.00
C6       1.06731    1.00185    0.65164   1.00
C6       1.05411    1.06654    0.68256   1.00
H2       1.04519    0.95188    0.56154   1.00
H2       1.04637    0.90820    0.53410   1.00
H2       1.08757    0.93925    0.53583   1.00
H2       1.13869    0.89265    0.56892   1.00
H2       1.11803    0.85248    0.59322   1.00
H2       1.10370    0.86383    0.54536   1.00
H2       1.05064    0.85721    0.72828   1.00
H2       1.00880    0.86250    0.69968   1.00
H2       1.04072    0.82267    0.69148   1.00
H2       1.12663    0.88126    0.65638   1.00
H2       1.11604    0.86096    0.70192   1.00
H2       1.10787    0.83298    0.65950   1.00
H2       1.05955    0.80112    0.60986   1.00
H2       1.02105    0.78863    0.57792   1.00
H2       1.05729    0.81988    0.56168   1.00
H2       0.99212    0.80688    0.64598   1.00
H2       0.96640    0.85089    0.64432   1.00
H2       0.96067    0.81692    0.60672   1.00
H2       0.93939    1.00015    0.64812   1.00
H2       0.93868    1.05132    0.64691   1.00
H2       0.98158    1.02633    0.63452   1.00
H2       0.90989    1.04623    0.71375   1.00
H2       0.91722    0.99592    0.71926   1.00
H2       0.93638    1.02901    0.75378   1.00
H2       1.04655    0.97665    0.81298   1.00
H2       1.04732    0.94779    0.77065   1.00
H2       1.07889    0.98843    0.77465   1.00
H2       1.00067    1.06636    0.77084   1.00
H2       1.02037    1.04469    0.81288   1.00
H2       1.05160    1.05786    0.77415   1.00
H2       1.04567    1.00427    0.62844   1.00
H2       1.09463    1.01452    0.64119   1.00
H2       1.07273    0.97105    0.65666   1.00
H2       1.08346    1.07619    0.67456   1.00
H2       1.03447    1.07465    0.65878   1.00
H2       1.04577    1.08306    0.70843   1.00
C4       0.41219    0.41383    1.18584   1.00
C4       0.41245    0.41451    1.14412   1.00
C3       0.37810    0.41971    1.20864   1.00
C3       0.37947    0.42463    1.12116   1.00
C3       0.44796    0.40753    1.20623   1.00
C3       0.44744    0.40447    1.12386   1.00
C2       0.41443    0.41395    1.27012   1.00
C2       0.41557    0.41605    1.05988   1.00
C3       0.37919    0.42000    1.24962   1.00
C3       0.38086    0.42504    1.08019   1.00
C3       0.44833    0.40719    1.24758   1.00
C3       0.44869    0.40668    1.08262   1.00
H1       0.35145    0.42383    1.19615   1.00
H1       0.35354    0.43225    1.13352   1.00
C5       0.48311    0.40143    1.18520   1.00
C5       0.48108    0.39262    1.14480   1.00
H1       0.35366    0.42469    1.26455   1.00
H1       0.35601    0.43226    1.06510   1.00
H1       0.47400    0.40156    1.26180   1.00
H1       0.47462    0.40183    1.06868   1.00
O3       0.51832    0.40188    1.20461   1.00
O3       0.51239    0.37552    1.12599   1.00
Si1      0.54330    0.44236    1.20747   1.00
Si1      0.51147    0.32862    1.11779   1.00
C6       0.57913    0.42543    1.24038   1.00
C6       0.56341    0.45135    1.16098   1.00
C6       0.51645    0.48149    1.22753   1.00
C6       0.46949    0.30217    1.13193   1.00
C6       0.51723    0.32558    1.06698   1.00
C6       0.55336    0.30851    1.13977   1.00
C6       0.56355    0.40276    1.27694   1.00
H2       0.59455    0.40369    1.22291   1.00
C6       0.61156    0.45351    1.25647   1.00
H2       0.56467    0.42205    1.14858   1.00
C6       0.53928    0.47633    1.13134   1.00
C6       0.60601    0.46761    1.15836   1.00
H2       0.50329    0.46808    1.25331   1.00
C6       0.54013    0.51754    1.24272   1.00
C6       0.48205    0.50001    1.20349   1.00
C6       0.45673    0.30394    1.17571   1.00
C6       0.43118    0.30579    1.10725   1.00
H2       0.47859    0.27203    1.12712   1.00
H2       0.48970    0.33673    1.05551   1.00
C6       0.54961    0.35221    1.04878   1.00
C6       0.52286    0.28405    1.04893   1.00
H2       0.57661    0.31422    1.11875   1.00
C6       0.56731    0.32815    1.17836   1.00
C6       0.55411    0.26346    1.14744   1.00
H2       0.54519    0.37812    1.26846   1.00
H2       0.54637    0.42180    1.29590   1.00
H2       0.58757    0.39075    1.29417   1.00
H2       0.63869    0.43735    1.26108   1.00
H2       0.61803    0.47752    1.23678   1.00
H2       0.60370    0.46617    1.28464   1.00
H2       0.55064    0.47279    1.10172   1.00
H2       0.50880    0.46750    1.13032   1.00
H2       0.54072    0.50733    1.13852   1.00
H2       0.62663    0.44874    1.17362   1.00
H2       0.61604    0.46904    1.12808   1.00
H2       0.60787    0.49702    1.17050   1.00
H2       0.55955    0.52888    1.22014   1.00
H2       0.52105    0.54137    1.25208   1.00
H2       0.55729    0.51012    1.26832   1.00
H2       0.49212    0.52312    1.18402   1.00
H2       0.46640    0.47911    1.18568   1.00
H2       0.46067    0.51308    1.22328   1.00
H2       0.43939    0.32985    1.18188   1.00
H2       0.43868    0.27868    1.18309   1.00
H2       0.48158    0.30367    1.19548   1.00
H2       0.40989    0.28377    1.11625   1.00
H2       0.41722    0.33408    1.11074   1.00
H2       0.43638    0.30099    1.07622   1.00
H2       0.54655    0.35335    1.01702   1.00
H2       0.54732    0.38221    1.05935   1.00
H2       0.57889    0.34157    1.05535   1.00
H2       0.50067    0.26364    1.05916   1.00
H2       0.52037    0.28531    1.01712   1.00
H2       0.55160    0.27214    1.05585   1.00
H2       0.54567    0.32573    1.20156   1.00
H2       0.59463    0.31548    1.18881   1.00
H2       0.57273    0.35895    1.17334   1.00
H2       0.58346    0.25381    1.15544   1.00
H2       0.53447    0.25535    1.17122   1.00
H2       0.54577    0.24694    1.12157   1.00
C4       0.41383    0.68584    0.91219   1.00
C4       0.41451    0.64412    0.91245   1.00
C3       0.41971    0.70864    0.87810   1.00
C3       0.42463    0.62116    0.87947   1.00
C3       0.40753    0.70623    0.94796   1.00
C3       0.40447    0.62386    0.94744   1.00
C2       0.41395    0.77012    0.91443   1.00
C2       0.41605    0.55988    0.91557   1.00
C3       0.42000    0.74962    0.87919   1.00
C3       0.42504    0.58019    0.88086   1.00
C3       0.40719    0.74758    0.94833   1.00
C3       0.40668    0.58262    0.94869   1.00
H1       0.42383    0.69615    0.85145   1.00
H1       0.43225    0.63352    0.85354   1.00
C5       0.40143    0.68520    0.98311   1.00
C5       0.39262    0.64480    0.98108   1.00
H1       0.42469    0.76455    0.85366   1.00
H1       0.43226    0.56510    0.85601   1.00
H1       0.40156    0.76180    0.97400   1.00
H1       0.40183    0.56868    0.97462   1.00
O3       0.40188    0.70461    1.01832   1.00
O3       0.37552    0.62599    1.01239   1.00
Si1      0.44236    0.70747    1.04330   1.00
Si1      0.32862    0.61779    1.01147   1.00
C6       0.42543    0.74038    1.07913   1.00
C6       0.45135    0.66098    1.06341   1.00
C6       0.48149    0.72753    1.01645   1.00
C6       0.30217    0.63193    0.96949   1.00
C6       0.32558    0.56698    1.01723   1.00
C6       0.30851    0.63977    1.05336   1.00
C6       0.40276    0.77694    1.06355   1.00
H2       0.40369    0.72291    1.09455   1.00
C6       0.45351    0.75647    1.11156   1.00
H2       0.42205    0.64858    1.06467   1.00
C6       0.47633    0.63134    1.03928   1.00
C6       0.46761    0.65836    1.10601   1.00
H2       0.46808    0.75331    1.00329   1.00
C6       0.51754    0.74272    1.04013   1.00
C6       0.50001    0.70349    0.98205   1.00
C6       0.30394    0.67571    0.95673   1.00
C6       0.30579    0.60725    0.93118   1.00
H2       0.27203    0.62712    0.97859   1.00
H2       0.33673    0.55551    0.98970   1.00
C6       0.35221    0.54878    1.04961   1.00
C6       0.28405    0.54893    1.02286   1.00
H2       0.31422    0.61875    1.07661   1.00
C6       0.32815    0.67836    1.06731   1.00
C6       0.26346    0.64744    1.05411   1.00
H2       0.37812    0.76846    1.04519   1.00
H2       0.42180    0.79590    1.04637   1.00
H2       0.39075    0.79417    1.08757   1.00
H2       0.43735    0.76108    1.13869   1.00
H2       0.47752    0.73678    1.11803   1.00
H2       0.46617    0.78464    1.10370   1.00
H2       0.47279    0.60172    1.05064   1.00
H2       0.46750    0.63032    1.00880   1.00
H2       0.50733    0.63852    1.04072   1.00
H2       0.44874    0.67362    1.12663   1.00
H2       0.46904    0.62808    1.11604   1.00
H2       0.49702    0.67050    1.10787   1.00
H2       0.52888    0.72014    1.05955   1.00
H2       0.54137    0.75208    1.02105   1.00
H2       0.51012    0.76832    1.05729   1.00
H2       0.52312    0.68402    0.99212   1.00
H2       0.47911    0.68568    0.96640   1.00
H2       0.51308    0.72328    0.96067   1.00
H2       0.32985    0.68188    0.93939   1.00
H2       0.27868    0.68309    0.93868   1.00
H2       0.30367    0.69548    0.98158   1.00
H2       0.28377    0.61625    0.90989   1.00
H2       0.33408    0.61074    0.91722   1.00
H2       0.30099    0.57622    0.93638   1.00
H2       0.35335    0.51702    1.04655   1.00
H2       0.38221    0.55935    1.04732   1.00
H2       0.34157    0.55535    1.07889   1.00
H2       0.26364    0.55916    1.00067   1.00
H2       0.28531    0.51712    1.02037   1.00
H2       0.27214    0.55585    1.05160   1.00
H2       0.32573    0.70156    1.04567   1.00
H2       0.31548    0.68881    1.09463   1.00
H2       0.35895    0.67334    1.07273   1.00
H2       0.25381    0.65544    1.08346   1.00
H2       0.25535    0.67122    1.03447   1.00
H2       0.24694    0.62157    1.04577   1.00
C4       0.14416    0.41219    0.91617   1.00
C4       0.18588    0.41245    0.91549   1.00
C3       0.12136    0.37810    0.91029   1.00
C3       0.20884    0.37947    0.90537   1.00
C3       0.12377    0.44796    0.92247   1.00
C3       0.20614    0.44744    0.92553   1.00
C2       0.05988    0.41443    0.91605   1.00
C2       0.27012    0.41557    0.91395   1.00
C3       0.08038    0.37919    0.91000   1.00
C3       0.24981    0.38086    0.90496   1.00
C3       0.08242    0.44833    0.92281   1.00
C3       0.24738    0.44869    0.92332   1.00
H1       0.13385    0.35145    0.90617   1.00
H1       0.19648    0.35354    0.89775   1.00
C5       0.14480    0.48311    0.92857   1.00
C5       0.18520    0.48108    0.93738   1.00
H1       0.06545    0.35366    0.90531   1.00
H1       0.26490    0.35601    0.89774   1.00
H1       0.06820    0.47400    0.92844   1.00
H1       0.26132    0.47462    0.92817   1.00
O3       0.12539    0.51832    0.92812   1.00
O3       0.20401    0.51239    0.95448   1.00
Si1      0.12253    0.54330    0.88764   1.00
Si1      0.21221    0.51147    1.00138   1.00
C6       0.08962    0.57913    0.90457   1.00
C6       0.16902    0.56341    0.87865   1.00
C6       0.10247    0.51645    0.84851   1.00
C6       0.19807    0.46949    1.02783   1.00
C6       0.26302    0.51723    1.00442   1.00
C6       0.19023    0.55336    1.02149   1.00
C6       0.05306    0.56355    0.92724   1.00
H2       0.10709    0.59455    0.92631   1.00
C6       0.07353    0.61156    0.87649   1.00
H2       0.18142    0.56467    0.90795   1.00
C6       0.19866    0.53928    0.85367   1.00
C6       0.17164    0.60601    0.86239   1.00
H2       0.07669    0.50329    0.86192   1.00
C6       0.08728    0.54013    0.81246   1.00
C6       0.12651    0.48205    0.82999   1.00
C6       0.15429    0.45673    1.02606   1.00
C6       0.22275    0.43118    1.02421   1.00
H2       0.20288    0.47859    1.05797   1.00
H2       0.27449    0.48970    0.99327   1.00
C6       0.28122    0.54961    0.97779   1.00
C6       0.28107    0.52286    1.04595   1.00
H2       0.21125    0.57661    1.01578   1.00
C6       0.15164    0.56731    1.00185   1.00
C6       0.18256    0.55411    1.06654   1.00
H2       0.06154    0.54519    0.95188   1.00
H2       0.03410    0.54637    0.90820   1.00
H2       0.03583    0.58757    0.93925   1.00
H2       0.06892    0.63869    0.89265   1.00
H2       0.09322    0.61803    0.85248   1.00
H2       0.04536    0.60370    0.86383   1.00
H2       0.22828    0.55064    0.85721   1.00
H2       0.19968    0.50880    0.86250   1.00
H2       0.19148    0.54072    0.82267   1.00
H2       0.15638    0.62663    0.88126   1.00
H2       0.20192    0.61604    0.86096   1.00
H2       0.15950    0.60787    0.83298   1.00
H2       0.10986    0.55955    0.80112   1.00
H2       0.07792    0.52105    0.78863   1.00
H2       0.06168    0.55729    0.81988   1.00
H2       0.14598    0.49212    0.80688   1.00
H2       0.14432    0.46640    0.85089   1.00
H2       0.10672    0.46067    0.81692   1.00
H2       0.14812    0.43939    1.00015   1.00
H2       0.14691    0.43868    1.05132   1.00
H2       0.13452    0.48158    1.02633   1.00
H2       0.21375    0.40989    1.04623   1.00
H2       0.21926    0.41722    0.99592   1.00
H2       0.25378    0.43638    1.02901   1.00
H2       0.31298    0.54655    0.97665   1.00
H2       0.27065    0.54732    0.94779   1.00
H2       0.27465    0.57889    0.98843   1.00
H2       0.27084    0.50067    1.06636   1.00
H2       0.31288    0.52037    1.04469   1.00
H2       0.27415    0.55160    1.05786   1.00
H2       0.12844    0.54567    1.00427   1.00
H2       0.14119    0.59463    1.01452   1.00
H2       0.15666    0.57273    0.97105   1.00
H2       0.17456    0.58346    1.07619   1.00
H2       0.15878    0.53447    1.07465   1.00
H2       0.20843    0.54577    1.08306   1.00
C4       0.68584    0.41219    0.91383   1.00
C4       0.64412    0.41245    0.91451   1.00
C3       0.70864    0.37810    0.91971   1.00
C3       0.62116    0.37947    0.92463   1.00
C3       0.70623    0.44796    0.90753   1.00
C3       0.62386    0.44744    0.90447   1.00
C2       0.77012    0.41443    0.91395   1.00
C2       0.55988    0.41557    0.91605   1.00
C3       0.74962    0.37919    0.92000   1.00
C3       0.58019    0.38086    0.92504   1.00
C3       0.74758    0.44833    0.90719   1.00
C3       0.58262    0.44869    0.90668   1.00
H1       0.69615    0.35145    0.92383   1.00
H1       0.63352    0.35354    0.93225   1.00
C5       0.68520    0.48311    0.90143   1.00
C5       0.64480    0.48108    0.89262   1.00
H1       0.76455    0.35366    0.92469   1.00
H1       0.56510    0.35601    0.93226   1.00
H1       0.76180    0.47400    0.90156   1.00
H1       0.56868    0.47462    0.90183   1.00
O3       0.70461    0.51832    0.90188   1.00
O3       0.62599    0.51239    0.87552   1.00
Si1      0.70747    0.54330    0.94236   1.00
Si1      0.61779    0.51147    0.82862   1.00
C6       0.74038    0.57913    0.92543   1.00
C6       0.66098    0.56341    0.95135   1.00
C6       0.72753    0.51645    0.98149   1.00
C6       0.63193    0.46949    0.80217   1.00
C6       0.56698    0.51723    0.82558   1.00
C6       0.63977    0.55336    0.80851   1.00
C6       0.77694    0.56355    0.90276   1.00
H2       0.72291    0.59455    0.90369   1.00
C6       0.75647    0.61156    0.95351   1.00
H2       0.64858    0.56467    0.92205   1.00
C6       0.63134    0.53928    0.97633   1.00
C6       0.65836    0.60601    0.96761   1.00
H2       0.75331    0.50329    0.96808   1.00
C6       0.74272    0.54013    1.01754   1.00
C6       0.70349    0.48205    1.00001   1.00
C6       0.67571    0.45673    0.80394   1.00
C6       0.60725    0.43118    0.80579   1.00
H2       0.62712    0.47859    0.77203   1.00
H2       0.55551    0.48970    0.83673   1.00
C6       0.54878    0.54961    0.85221   1.00
C6       0.54893    0.52286    0.78405   1.00
H2       0.61875    0.57661    0.81422   1.00
C6       0.67836    0.56731    0.82815   1.00
C6       0.64744    0.55411    0.76346   1.00
H2       0.76846    0.54519    0.87812   1.00
H2       0.79590    0.54637    0.92180   1.00
H2       0.79417    0.58757    0.89075   1.00
H2       0.76108    0.63869    0.93735   1.00
H2       0.73678    0.61803    0.97752   1.00
H2       0.78464    0.60370    0.96617   1.00
H2       0.60172    0.55064    0.97279   1.00
H2       0.63032    0.50880    0.96750   1.00
H2       0.63852    0.54072    1.00733   1.00
H2       0.67362    0.62663    0.94874   1.00
H2       0.62808    0.61604    0.96904   1.00
H2       0.67050    0.60787    0.99702   1.00
H2       0.72014    0.55955    1.02888   1.00
H2       0.75208    0.52105    1.04137   1.00
H2       0.76832    0.55729    1.01012   1.00
H2       0.68402    0.49212    1.02312   1.00
H2       0.68568    0.46640    0.97911   1.00
H2       0.72328    0.46067    1.01308   1.00
H2       0.68188    0.43939    0.82985   1.00
H2       0.68309    0.43868    0.77868   1.00
H2       0.69548    0.48158    0.80367   1.00
H2       0.61625    0.40989    0.78377   1.00
H2       0.61074    0.41722    0.83408   1.00
H2       0.57622    0.43638    0.80099   1.00
H2       0.51702    0.54655    0.85335   1.00
H2       0.55935    0.54732    0.88221   1.00
H2       0.55535    0.57889    0.84157   1.00
H2       0.55916    0.50067    0.76364   1.00
H2       0.51712    0.52037    0.78531   1.00
H2       0.55585    0.55160    0.77214   1.00
H2       0.70156    0.54567    0.82573   1.00
H2       0.68881    0.59463    0.81548   1.00
H2       0.67334    0.57273    0.85895   1.00
H2       0.65544    0.58346    0.75381   1.00
H2       0.67122    0.53447    0.75535   1.00
H2       0.62157    0.54577    0.74694   1.00
C4       0.41617    0.14416    0.91219   1.00
C4       0.41549    0.18588    0.91245   1.00
C3       0.41029    0.12136    0.87810   1.00
C3       0.40537    0.20884    0.87947   1.00
C3       0.42247    0.12377    0.94796   1.00
C3       0.42553    0.20614    0.94744   1.00
C2       0.41605    0.05988    0.91443   1.00
C2       0.41395    0.27012    0.91557   1.00
C3       0.41000    0.08038    0.87919   1.00
C3       0.40496    0.24981    0.88086   1.00
C3       0.42281    0.08242    0.94833   1.00
C3       0.42332    0.24738    0.94869   1.00
H1       0.40617    0.13385    0.85145   1.00
H1       0.39775    0.19648    0.85354   1.00
C5       0.42857    0.14480    0.98311   1.00
C5       0.43738    0.18520    0.98108   1.00
H1       0.40531    0.06545    0.85366   1.00
H1       0.39774    0.26490    0.85601   1.00
H1       0.42844    0.06820    0.97400   1.00
H1       0.42817    0.26132    0.97462   1.00
O3       0.42812    0.12539    1.01832   1.00
O3       0.45448    0.20401    1.01239   1.00
Si1      0.38764    0.12253    1.04330   1.00
Si1      0.50138    0.21221    1.01147   1.00
C6       0.40457    0.08962    1.07913   1.00
C6       0.37865    0.16902    1.06341   1.00
C6       0.34851    0.10247    1.01645   1.00
C6       0.52783    0.19807    0.96949   1.00
C6       0.50442    0.26302    1.01723   1.00
C6       0.52149    0.19023    1.05336   1.00
C6       0.42724    0.05306    1.06355   1.00
H2       0.42631    0.10709    1.09455   1.00
C6       0.37649    0.07353    1.11156   1.00
H2       0.40795    0.18142    1.06467   1.00
C6       0.35367    0.19866    1.03928   1.00
C6       0.36239    0.17164    1.10601   1.00
H2       0.36192    0.07669    1.00329   1.00
C6       0.31246    0.08728    1.04013   1.00
C6       0.32999    0.12651    0.98205   1.00
C6       0.52606    0.15429    0.95673   1.00
C6       0.52421    0.22275    0.93118   1.00
H2       0.55797    0.20288    0.97859   1.00
H2       0.49327    0.27449    0.98970   1.00
C6       0.47779    0.28122    1.04961   1.00
C6       0.54595    0.28107    1.02286   1.00
H2       0.51578    0.21125    1.07661   1.00
C6       0.50185    0.15164    1.06731   1.00
C6       0.56654    0.18256    1.05411   1.00
H2       0.45188    0.06154    1.04519   1.00
H2       0.40820    0.03410    1.04637   1.00
H2       0.43925    0.03583    1.08757   1.00
H2       0.39265    0.06892    1.13869   1.00
H2       0.35248    0.09322    1.11803   1.00
H2       0.36383    0.04536    1.10370   1.00
H2       0.35721    0.22828    1.05064   1.00
H2       0.36250    0.19968    1.00880   1.00
H2       0.32267    0.19148    1.04072   1.00
H2       0.38126    0.15638    1.12663   1.00
H2       0.36096    0.20192    1.11604   1.00
H2       0.33298    0.15950    1.10787   1.00
H2       0.30112    0.10986    1.05955   1.00
H2       0.28863    0.07792    1.02105   1.00
H2       0.31988    0.06168    1.05729   1.00
H2       0.30688    0.14598    0.99212   1.00
H2       0.35089    0.14432    0.96640   1.00
H2       0.31692    0.10672    0.96067   1.00
H2       0.50015    0.14812    0.93939   1.00
H2       0.55132    0.14691    0.93868   1.00
H2       0.52633    0.13452    0.98158   1.00
H2       0.54623    0.21375    0.90989   1.00
H2       0.49592    0.21926    0.91722   1.00
H2       0.52901    0.25378    0.93638   1.00
H2       0.47665    0.31298    1.04655   1.00
H2       0.44779    0.27065    1.04732   1.00
H2       0.48843    0.27465    1.07889   1.00
H2       0.56636    0.27084    1.00067   1.00
H2       0.54469    0.31288    1.02037   1.00
H2       0.55786    0.27415    1.05160   1.00
H2       0.50427    0.12844    1.04567   1.00
H2       0.51452    0.14119    1.09463   1.00
H2       0.47105    0.15666    1.07273   1.00
H2       0.57619    0.17456    1.08346   1.00
H2       0.57465    0.15878    1.03447   1.00
H2       0.58306    0.20843    1.04577   1.00
C4       0.41219    0.41617    0.64416   1.00
C4       0.41245    0.41549    0.68588   1.00
C3       0.37810    0.41029    0.62136   1.00
C3       0.37947    0.40537    0.70884   1.00
C3       0.44796    0.42247    0.62377   1.00
C3       0.44744    0.42553    0.70614   1.00
C2       0.41443    0.41605    0.55988   1.00
C2       0.41557    0.41395    0.77012   1.00
C3       0.37919    0.41000    0.58038   1.00
C3       0.38086    0.40496    0.74981   1.00
C3       0.44833    0.42281    0.58242   1.00
C3       0.44869    0.42332    0.74738   1.00
H1       0.35145    0.40617    0.63385   1.00
H1       0.35354    0.39775    0.69648   1.00
C5       0.48311    0.42857    0.64480   1.00
C5       0.48108    0.43738    0.68520   1.00
H1       0.35366    0.40531    0.56545   1.00
H1       0.35601    0.39774    0.76490   1.00
H1       0.47400    0.42844    0.56820   1.00
H1       0.47462    0.42817    0.76132   1.00
O3       0.51832    0.42812    0.62539   1.00
O3       0.51239    0.45448    0.70401   1.00
Si1      0.54330    0.38764    0.62253   1.00
Si1      0.51147    0.50138    0.71221   1.00
C6       0.57913    0.40457    0.58962   1.00
C6       0.56341    0.37865    0.66902   1.00
C6       0.51645    0.34851    0.60247   1.00
C6       0.46949    0.52783    0.69807   1.00
C6       0.51723    0.50442    0.76302   1.00
C6       0.55336    0.52149    0.69023   1.00
C6       0.56355    0.42724    0.55306   1.00
H2       0.59455    0.42631    0.60709   1.00
C6       0.61156    0.37649    0.57353   1.00
H2       0.56467    0.40795    0.68142   1.00
C6       0.53928    0.35367    0.69866   1.00
C6       0.60601    0.36239    0.67164   1.00
H2       0.50329    0.36192    0.57669   1.00
C6       0.54013    0.31246    0.58728   1.00
C6       0.48205    0.32999    0.62651   1.00
C6       0.45673    0.52606    0.65429   1.00
C6       0.43118    0.52421    0.72275   1.00
H2       0.47859    0.55797    0.70288   1.00
H2       0.48970    0.49327    0.77449   1.00
C6       0.54961    0.47779    0.78122   1.00
C6       0.52286    0.54595    0.78107   1.00
H2       0.57661    0.51578    0.71125   1.00
C6       0.56731    0.50185    0.65164   1.00
C6       0.55411    0.56654    0.68256   1.00
H2       0.54519    0.45188    0.56154   1.00
H2       0.54637    0.40820    0.53410   1.00
H2       0.58757    0.43925    0.53583   1.00
H2       0.63869    0.39265    0.56892   1.00
H2       0.61803    0.35248    0.59322   1.00
H2       0.60370    0.36383    0.54536   1.00
H2       0.55064    0.35721    0.72828   1.00
H2       0.50880    0.36250    0.69968   1.00
H2       0.54072    0.32267    0.69148   1.00
H2       0.62663    0.38126    0.65638   1.00
H2       0.61604    0.36096    0.70192   1.00
H2       0.60787    0.33298    0.65950   1.00
H2       0.55955    0.30112    0.60986   1.00
H2       0.52105    0.28863    0.57792   1.00
H2       0.55729    0.31988    0.56168   1.00
H2       0.49212    0.30688    0.64598   1.00
H2       0.46640    0.35089    0.64432   1.00
H2       0.46067    0.31692    0.60672   1.00
H2       0.43939    0.50015    0.64812   1.00
H2       0.43868    0.55132    0.64691   1.00
H2       0.48158    0.52633    0.63452   1.00
H2       0.40989    0.54623    0.71375   1.00
H2       0.41722    0.49592    0.71926   1.00
H2       0.43638    0.52901    0.75378   1.00
H2       0.54655    0.47665    0.81298   1.00
H2       0.54732    0.44779    0.77065   1.00
H2       0.57889    0.48843    0.77465   1.00
H2       0.50067    0.56636    0.77084   1.00
H2       0.52037    0.54469    0.81288   1.00
H2       0.55160    0.55786    0.77415   1.00
H2       0.54567    0.50427    0.62844   1.00
H2       0.59463    0.51452    0.64119   1.00
H2       0.57273    0.47105    0.65666   1.00
H2       0.58346    0.57619    0.67456   1.00
H2       0.53447    0.57465    0.65878   1.00
H2       0.54577    0.58306    0.70843   1.00
C4       0.41219    0.91383    0.68584   1.00
C4       0.41245    0.91451    0.64412   1.00
C3       0.37810    0.91971    0.70864   1.00
C3       0.37947    0.92463    0.62116   1.00
C3       0.44796    0.90753    0.70623   1.00
C3       0.44744    0.90447    0.62386   1.00
C2       0.41443    0.91395    0.77012   1.00
C2       0.41557    0.91605    0.55988   1.00
C3       0.37919    0.92000    0.74962   1.00
C3       0.38086    0.92504    0.58019   1.00
C3       0.44833    0.90719    0.74758   1.00
C3       0.44869    0.90668    0.58262   1.00
H1       0.35145    0.92383    0.69615   1.00
H1       0.35354    0.93225    0.63352   1.00
C5       0.48311    0.90143    0.68520   1.00
C5       0.48108    0.89262    0.64480   1.00
H1       0.35366    0.92469    0.76455   1.00
H1       0.35601    0.93226    0.56510   1.00
H1       0.47400    0.90156    0.76180   1.00
H1       0.47462    0.90183    0.56868   1.00
O3       0.51832    0.90188    0.70461   1.00
O3       0.51239    0.87552    0.62599   1.00
Si1      0.54330    0.94236    0.70747   1.00
Si1      0.51147    0.82862    0.61779   1.00
C6       0.57913    0.92543    0.74038   1.00
C6       0.56341    0.95135    0.66098   1.00
C6       0.51645    0.98149    0.72753   1.00
C6       0.46949    0.80217    0.63193   1.00
C6       0.51723    0.82558    0.56698   1.00
C6       0.55336    0.80851    0.63977   1.00
C6       0.56355    0.90276    0.77694   1.00
H2       0.59455    0.90369    0.72291   1.00
C6       0.61156    0.95351    0.75647   1.00
H2       0.56467    0.92205    0.64858   1.00
C6       0.53928    0.97633    0.63134   1.00
C6       0.60601    0.96761    0.65836   1.00
H2       0.50329    0.96808    0.75331   1.00
C6       0.54013    1.01754    0.74272   1.00
C6       0.48205    1.00001    0.70349   1.00
C6       0.45673    0.80394    0.67571   1.00
C6       0.43118    0.80579    0.60725   1.00
H2       0.47859    0.77203    0.62712   1.00
H2       0.48970    0.83673    0.55551   1.00
C6       0.54961    0.85221    0.54878   1.00
C6       0.52286    0.78405    0.54893   1.00
H2       0.57661    0.81422    0.61875   1.00
C6       0.56731    0.82815    0.67836   1.00
C6       0.55411    0.76346    0.64744   1.00
H2       0.54519    0.87812    0.76846   1.00
H2       0.54637    0.92180    0.79590   1.00
H2       0.58757    0.89075    0.79417   1.00
H2       0.63869    0.93735    0.76108   1.00
H2       0.61803    0.97752    0.73678   1.00
H2       0.60370    0.96617    0.78464   1.00
H2       0.55064    0.97279    0.60172   1.00
H2       0.50880    0.96750    0.63032   1.00
H2       0.54072    1.00733    0.63852   1.00
H2       0.62663    0.94874    0.67362   1.00
H2       0.61604    0.96904    0.62808   1.00
H2       0.60787    0.99702    0.67050   1.00
H2       0.55955    1.02888    0.72014   1.00
H2       0.52105    1.04137    0.75208   1.00
H2       0.55729    1.01012    0.76832   1.00
H2       0.49212    1.02312    0.68402   1.00
H2       0.46640    0.97911    0.68568   1.00
H2       0.46067    1.01308    0.72328   1.00
H2       0.43939    0.82985    0.68188   1.00
H2       0.43868    0.77868    0.68309   1.00
H2       0.48158    0.80367    0.69548   1.00
H2       0.40989    0.78377    0.61625   1.00
H2       0.41722    0.83408    0.61074   1.00
H2       0.43638    0.80099    0.57622   1.00
H2       0.54655    0.85335    0.51702   1.00
H2       0.54732    0.88221    0.55935   1.00
H2       0.57889    0.84157    0.55535   1.00
H2       0.50067    0.76364    0.55916   1.00
H2       0.52037    0.78531    0.51712   1.00
H2       0.55160    0.77214    0.55585   1.00
H2       0.54567    0.82573    0.70156   1.00
H2       0.59463    0.81548    0.68881   1.00
H2       0.57273    0.85895    0.67334   1.00
H2       0.58346    0.75381    0.65544   1.00
H2       0.53447    0.75535    0.67122   1.00
H2       0.54577    0.74694    0.62157   1.00
C4       0.41383    1.18584    0.41219   1.00
C4       0.41451    1.14412    0.41245   1.00
C3       0.41971    1.20864    0.37810   1.00
C3       0.42463    1.12116    0.37947   1.00
C3       0.40753    1.20623    0.44796   1.00
C3       0.40447    1.12386    0.44744   1.00
C2       0.41395    1.27012    0.41443   1.00
C2       0.41605    1.05988    0.41557   1.00
C3       0.42000    1.24962    0.37919   1.00
C3       0.42504    1.08019    0.38086   1.00
C3       0.40719    1.24758    0.44833   1.00
C3       0.40668    1.08262    0.44869   1.00
H1       0.42383    1.19615    0.35145   1.00
H1       0.43225    1.13352    0.35354   1.00
C5       0.40143    1.18520    0.48311   1.00
C5       0.39262    1.14480    0.48108   1.00
H1       0.42469    1.26455    0.35366   1.00
H1       0.43226    1.06510    0.35601   1.00
H1       0.40156    1.26180    0.47400   1.00
H1       0.40183    1.06868    0.47462   1.00
O3       0.40188    1.20461    0.51832   1.00
O3       0.37552    1.12599    0.51239   1.00
Si1      0.44236    1.20747    0.54330   1.00
Si1      0.32862    1.11779    0.51147   1.00
C6       0.42543    1.24038    0.57913   1.00
C6       0.45135    1.16098    0.56341   1.00
C6       0.48149    1.22753    0.51645   1.00
C6       0.30217    1.13193    0.46949   1.00
C6       0.32558    1.06698    0.51723   1.00
C6       0.30851    1.13977    0.55336   1.00
C6       0.40276    1.27694    0.56355   1.00
H2       0.40369    1.22291    0.59455   1.00
C6       0.45351    1.25647    0.61156   1.00
H2       0.42205    1.14858    0.56467   1.00
C6       0.47633    1.13134    0.53928   1.00
C6       0.46761    1.15836    0.60601   1.00
H2       0.46808    1.25331    0.50329   1.00
C6       0.51754    1.24272    0.54013   1.00
C6       0.50001    1.20349    0.48205   1.00
C6       0.30394    1.17571    0.45673   1.00
C6       0.30579    1.10725    0.43118   1.00
H2       0.27203    1.12712    0.47859   1.00
H2       0.33673    1.05551    0.48970   1.00
C6       0.35221    1.04878    0.54961   1.00
C6       0.28405    1.04893    0.52286   1.00
H2       0.31422    1.11875    0.57661   1.00
C6       0.32815    1.17836    0.56731   1.00
C6       0.26346    1.14744    0.55411   1.00
H2       0.37812    1.26846    0.54519   1.00
H2       0.42180    1.29590    0.54637   1.00
H2       0.39075    1.29417    0.58757   1.00
H2       0.43735    1.26108    0.63869   1.00
H2       0.47752    1.23678    0.61803   1.00
H2       0.46617    1.28464    0.60370   1.00
H2       0.47279    1.10172    0.55064   1.00
H2       0.46750    1.13032    0.50880   1.00
H2       0.50733    1.13852    0.54072   1.00
H2       0.44874    1.17362    0.62663   1.00
H2       0.46904    1.12808    0.61604   1.00
H2       0.49702    1.17050    0.60787   1.00
H2       0.52888    1.22014    0.55955   1.00
H2       0.54137    1.25208    0.52105   1.00
H2       0.51012    1.26832    0.55729   1.00
H2       0.52312    1.18402    0.49212   1.00
H2       0.47911    1.18568    0.46640   1.00
H2       0.51308    1.22328    0.46067   1.00
H2       0.32985    1.18188    0.43939   1.00
H2       0.27868    1.18309    0.43868   1.00
H2       0.30367    1.19548    0.48158   1.00
H2       0.28377    1.11625    0.40989   1.00
H2       0.33408    1.11074    0.41722   1.00
H2       0.30099    1.07622    0.43638   1.00
H2       0.35335    1.01702    0.54655   1.00
H2       0.38221    1.05935    0.54732   1.00
H2       0.34157    1.05535    0.57889   1.00
H2       0.26364    1.05916    0.50067   1.00
H2       0.28531    1.01712    0.52037   1.00
H2       0.27214    1.05585    0.55160   1.00
H2       0.32573    1.20156    0.54567   1.00
H2       0.31548    1.18881    0.59463   1.00
H2       0.35895    1.17334    0.57273   1.00
H2       0.25381    1.15544    0.58346   1.00
H2       0.25535    1.17122    0.53447   1.00
H2       0.24694    1.12157    0.54577   1.00
C4       0.14416    0.91219    0.41617   1.00
C4       0.18588    0.91245    0.41549   1.00
C3       0.12136    0.87810    0.41029   1.00
C3       0.20884    0.87947    0.40537   1.00
C3       0.12377    0.94796    0.42247   1.00
C3       0.20614    0.94744    0.42553   1.00
C2       0.05988    0.91443    0.41605   1.00
C2       0.27012    0.91557    0.41395   1.00
C3       0.08038    0.87919    0.41000   1.00
C3       0.24981    0.88086    0.40496   1.00
C3       0.08242    0.94833    0.42281   1.00
C3       0.24738    0.94869    0.42332   1.00
H1       0.13385    0.85145    0.40617   1.00
H1       0.19648    0.85354    0.39775   1.00
C5       0.14480    0.98311    0.42857   1.00
C5       0.18520    0.98108    0.43738   1.00
H1       0.06545    0.85366    0.40531   1.00
H1       0.26490    0.85601    0.39774   1.00
H1       0.06820    0.97400    0.42844   1.00
H1       0.26132    0.97462    0.42817   1.00
O3       0.12539    1.01832    0.42812   1.00
O3       0.20401    1.01239    0.45448   1.00
Si1      0.12253    1.04330    0.38764   1.00
Si1      0.21221    1.01147    0.50138   1.00
C6       0.08962    1.07913    0.40457   1.00
C6       0.16902    1.06341    0.37865   1.00
C6       0.10247    1.01645    0.34851   1.00
C6       0.19807    0.96949    0.52783   1.00
C6       0.26302    1.01723    0.50442   1.00
C6       0.19023    1.05336    0.52149   1.00
C6       0.05306    1.06355    0.42724   1.00
H2       0.10709    1.09455    0.42631   1.00
C6       0.07353    1.11156    0.37649   1.00
H2       0.18142    1.06467    0.40795   1.00
C6       0.19866    1.03928    0.35367   1.00
C6       0.17164    1.10601    0.36239   1.00
H2       0.07669    1.00329    0.36192   1.00
C6       0.08728    1.04013    0.31246   1.00
C6       0.12651    0.98205    0.32999   1.00
C6       0.15429    0.95673    0.52606   1.00
C6       0.22275    0.93118    0.52421   1.00
H2       0.20288    0.97859    0.55797   1.00
H2       0.27449    0.98970    0.49327   1.00
C6       0.28122    1.04961    0.47779   1.00
C6       0.28107    1.02286    0.54595   1.00
H2       0.21125    1.07661    0.51578   1.00
C6       0.15164    1.06731    0.50185   1.00
C6       0.18256    1.05411    0.56654   1.00
H2       0.06154    1.04519    0.45188   1.00
H2       0.03410    1.04637    0.40820   1.00
H2       0.03583    1.08757    0.43925   1.00
H2       0.06892    1.13869    0.39265   1.00
H2       0.09322    1.11803    0.35248   1.00
H2       0.04536    1.10370    0.36383   1.00
H2       0.22828    1.05064    0.35721   1.00
H2       0.19968    1.00880    0.36250   1.00
H2       0.19148    1.04072    0.32267   1.00
H2       0.15638    1.12663    0.38126   1.00
H2       0.20192    1.11604    0.36096   1.00
H2       0.15950    1.10787    0.33298   1.00
H2       0.10986    1.05955    0.30112   1.00
H2       0.07792    1.02105    0.28863   1.00
H2       0.06168    1.05729    0.31988   1.00
H2       0.14598    0.99212    0.30688   1.00
H2       0.14432    0.96640    0.35089   1.00
H2       0.10672    0.96067    0.31692   1.00
H2       0.14812    0.93939    0.50015   1.00
H2       0.14691    0.93868    0.55132   1.00
H2       0.13452    0.98158    0.52633   1.00
H2       0.21375    0.90989    0.54623   1.00
H2       0.21926    0.91722    0.49592   1.00
H2       0.25378    0.93638    0.52901   1.00
H2       0.31298    1.04655    0.47665   1.00
H2       0.27065    1.04732    0.44779   1.00
H2       0.27465    1.07889    0.48843   1.00
H2       0.27084    1.00067    0.56636   1.00
H2       0.31288    1.02037    0.54469   1.00
H2       0.27415    1.05160    0.55786   1.00
H2       0.12844    1.04567    0.50427   1.00
H2       0.14119    1.09463    0.51452   1.00
H2       0.15666    1.07273    0.47105   1.00
H2       0.17456    1.08346    0.57619   1.00
H2       0.15878    1.03447    0.57465   1.00
H2       0.20843    1.04577    0.58306   1.00
C4       0.68584    0.91219    0.41383   1.00
C4       0.64412    0.91245    0.41451   1.00
C3       0.70864    0.87810    0.41971   1.00
C3       0.62116    0.87947    0.42463   1.00
C3       0.70623    0.94796    0.40753   1.00
C3       0.62386    0.94744    0.40447   1.00
C2       0.77012    0.91443    0.41395   1.00
C2       0.55988    0.91557    0.41605   1.00
C3       0.74962    0.87919    0.42000   1.00
C3       0.58019    0.88086    0.42504   1.00
C3       0.74758    0.94833    0.40719   1.00
C3       0.58262    0.94869    0.40668   1.00
H1       0.69615    0.85145    0.42383   1.00
H1       0.63352    0.85354    0.43225   1.00
C5       0.68520    0.98311    0.40143   1.00
C5       0.64480    0.98108    0.39262   1.00
H1       0.76455    0.85366    0.42469   1.00
H1       0.56510    0.85601    0.43226   1.00
H1       0.76180    0.97400    0.40156   1.00
H1       0.56868    0.97462    0.40183   1.00
O3       0.70461    1.01832    0.40188   1.00
O3       0.62599    1.01239    0.37552   1.00
Si1      0.70747    1.04330    0.44236   1.00
Si1      0.61779    1.01147    0.32862   1.00
C6       0.74038    1.07913    0.42543   1.00
C6       0.66098    1.06341    0.45135   1.00
C6       0.72753    1.01645    0.48149   1.00
C6       0.63193    0.96949    0.30217   1.00
C6       0.56698    1.01723    0.32558   1.00
C6       0.63977    1.05336    0.30851   1.00
C6       0.77694    1.06355    0.40276   1.00
H2       0.72291    1.09455    0.40369   1.00
C6       0.75647    1.11156    0.45351   1.00
H2       0.64858    1.06467    0.42205   1.00
C6       0.63134    1.03928    0.47633   1.00
C6       0.65836    1.10601    0.46761   1.00
H2       0.75331    1.00329    0.46808   1.00
C6       0.74272    1.04013    0.51754   1.00
C6       0.70349    0.98205    0.50001   1.00
C6       0.67571    0.95673    0.30394   1.00
C6       0.60725    0.93118    0.30579   1.00
H2       0.62712    0.97859    0.27203   1.00
H2       0.55551    0.98970    0.33673   1.00
C6       0.54878    1.04961    0.35221   1.00
C6       0.54893    1.02286    0.28405   1.00
H2       0.61875    1.07661    0.31422   1.00
C6       0.67836    1.06731    0.32815   1.00
C6       0.64744    1.05411    0.26346   1.00
H2       0.76846    1.04519    0.37812   1.00
H2       0.79590    1.04637    0.42180   1.00
H2       0.79417    1.08757    0.39075   1.00
H2       0.76108    1.13869    0.43735   1.00
H2       0.73678    1.11803    0.47752   1.00
H2       0.78464    1.10370    0.46617   1.00
H2       0.60172    1.05064    0.47279   1.00
H2       0.63032    1.00880    0.46750   1.00
H2       0.63852    1.04072    0.50733   1.00
H2       0.67362    1.12663    0.44874   1.00
H2       0.62808    1.11604    0.46904   1.00
H2       0.67050    1.10787    0.49702   1.00
H2       0.72014    1.05955    0.52888   1.00
H2       0.75208    1.02105    0.54137   1.00
H2       0.76832    1.05729    0.51012   1.00
H2       0.68402    0.99212    0.52312   1.00
H2       0.68568    0.96640    0.47911   1.00
H2       0.72328    0.96067    0.51308   1.00
H2       0.68188    0.93939    0.32985   1.00
H2       0.68309    0.93868    0.27868   1.00
H2       0.69548    0.98158    0.30367   1.00
H2       0.61625    0.90989    0.28377   1.00
H2       0.61074    0.91722    0.33408   1.00
H2       0.57622    0.93638    0.30099   1.00
H2       0.51702    1.04655    0.35335   1.00
H2       0.55935    1.04732    0.38221   1.00
H2       0.55535    1.07889    0.34157   1.00
H2       0.55916    1.00067    0.26364   1.00
H2       0.51712    1.02037    0.28531   1.00
H2       0.55585    1.05160    0.27214   1.00
H2       0.70156    1.04567    0.32573   1.00
H2       0.68881    1.09463    0.31548   1.00
H2       0.67334    1.07273    0.35895   1.00
H2       0.65544    1.08346    0.25381   1.00
H2       0.67122    1.03447    0.25535   1.00
H2       0.62157    1.04577    0.24694   1.00
C4       0.41617    0.64416    0.41219   1.00
C4       0.41549    0.68588    0.41245   1.00
C3       0.41029    0.62136    0.37810   1.00
C3       0.40537    0.70884    0.37947   1.00
C3       0.42247    0.62377    0.44796   1.00
C3       0.42553    0.70614    0.44744   1.00
C2       0.41605    0.55988    0.41443   1.00
C2       0.41395    0.77012    0.41557   1.00
C3       0.41000    0.58038    0.37919   1.00
C3       0.40496    0.74981    0.38086   1.00
C3       0.42281    0.58242    0.44833   1.00
C3       0.42332    0.74738    0.44869   1.00
H1       0.40617    0.63385    0.35145   1.00
H1       0.39775    0.69648    0.35354   1.00
C5       0.42857    0.64480    0.48311   1.00
C5       0.43738    0.68520    0.48108   1.00
H1       0.40531    0.56545    0.35366   1.00
H1       0.39774    0.76490    0.35601   1.00
H1       0.42844    0.56820    0.47400   1.00
H1       0.42817    0.76132    0.47462   1.00
O3       0.42812    0.62539    0.51832   1.00
O3       0.45448    0.70401    0.51239   1.00
Si1      0.38764    0.62253    0.54330   1.00
Si1      0.50138    0.71221    0.51147   1.00
C6       0.40457    0.58962    0.57913   1.00
C6       0.37865    0.66902    0.56341   1.00
C6       0.34851    0.60247    0.51645   1.00
C6       0.52783    0.69807    0.46949   1.00
C6       0.50442    0.76302    0.51723   1.00
C6       0.52149    0.69023    0.55336   1.00
C6       0.42724    0.55306    0.56355   1.00
H2       0.42631    0.60709    0.59455   1.00
C6       0.37649    0.57353    0.61156   1.00
H2       0.40795    0.68142    0.56467   1.00
C6       0.35367    0.69866    0.53928   1.00
C6       0.36239    0.67164    0.60601   1.00
H2       0.36192    0.57669    0.50329   1.00
C6       0.31246    0.58728    0.54013   1.00
C6       0.32999    0.62651    0.48205   1.00
C6       0.52606    0.65429    0.45673   1.00
C6       0.52421    0.72275    0.43118   1.00
H2       0.55797    0.70288    0.47859   1.00
H2       0.49327    0.77449    0.48970   1.00
C6       0.47779    0.78122    0.54961   1.00
C6       0.54595    0.78107    0.52286   1.00
H2       0.51578    0.71125    0.57661   1.00
C6       0.50185    0.65164    0.56731   1.00
C6       0.56654    0.68256    0.55411   1.00
H2       0.45188    0.56154    0.54519   1.00
H2       0.40820    0.53410    0.54637   1.00
H2       0.43925    0.53583    0.58757   1.00
H2       0.39265    0.56892    0.63869   1.00
H2       0.35248    0.59322    0.61803   1.00
H2       0.36383    0.54536    0.60370   1.00
H2       0.35721    0.72828    0.55064   1.00
H2       0.36250    0.69968    0.50880   1.00
H2       0.32267    0.69148    0.54072   1.00
H2       0.38126    0.65638    0.62663   1.00
H2       0.36096    0.70192    0.61604   1.00
H2       0.33298    0.65950    0.60787   1.00
H2       0.30112    0.60986    0.55955   1.00
H2       0.28863    0.57792    0.52105   1.00
H2       0.31988    0.56168    0.55729   1.00
H2       0.30688    0.64598    0.49212   1.00
H2       0.35089    0.64432    0.46640   1.00
H2       0.31692    0.60672    0.46067   1.00
H2       0.50015    0.64812    0.43939   1.00
H2       0.55132    0.64691    0.43868   1.00
H2       0.52633    0.63452    0.48158   1.00
H2       0.54623    0.71375    0.40989   1.00
H2       0.49592    0.71926    0.41722   1.00
H2       0.52901    0.75378    0.43638   1.00
H2       0.47665    0.81298    0.54655   1.00
H2       0.44779    0.77065    0.54732   1.00
H2       0.48843    0.77465    0.57889   1.00
H2       0.56636    0.77084    0.50067   1.00
H2       0.54469    0.81288    0.52037   1.00
H2       0.55786    0.77415    0.55160   1.00
H2       0.50427    0.62844    0.54567   1.00
H2       0.51452    0.64119    0.59463   1.00
H2       0.47105    0.65666    0.57273   1.00
H2       0.57619    0.67456    0.58346   1.00
H2       0.57465    0.65878    0.53447   1.00
H2       0.58306    0.70843    0.54577   1.00
C4       0.41219    0.91617    0.14416   1.00
C4       0.41245    0.91549    0.18588   1.00
C3       0.37810    0.91029    0.12136   1.00
C3       0.37947    0.90537    0.20884   1.00
C3       0.44796    0.92247    0.12377   1.00
C3       0.44744    0.92553    0.20614   1.00
C2       0.41443    0.91605    0.05988   1.00
C2       0.41557    0.91395    0.27012   1.00
C3       0.37919    0.91000    0.08038   1.00
C3       0.38086    0.90496    0.24981   1.00
C3       0.44833    0.92281    0.08242   1.00
C3       0.44869    0.92332    0.24738   1.00
H1       0.35145    0.90617    0.13385   1.00
H1       0.35354    0.89775    0.19648   1.00
C5       0.48311    0.92857    0.14480   1.00
C5       0.48108    0.93738    0.18520   1.00
H1       0.35366    0.90531    0.06545   1.00
H1       0.35601    0.89774    0.26490   1.00
H1       0.47400    0.92844    0.06820   1.00
H1       0.47462    0.92817    0.26132   1.00
O3       0.51832    0.92812    0.12539   1.00
O3       0.51239    0.95448    0.20401   1.00
Si1      0.54330    0.88764    0.12253   1.00
Si1      0.51147    1.00138    0.21221   1.00
C6       0.57913    0.90457    0.08962   1.00
C6       0.56341    0.87865    0.16902   1.00
C6       0.51645    0.84851    0.10247   1.00
C6       0.46949    1.02783    0.19807   1.00
C6       0.51723    1.00442    0.26302   1.00
C6       0.55336    1.02149    0.19023   1.00
C6       0.56355    0.92724    0.05306   1.00
H2       0.59455    0.92631    0.10709   1.00
C6       0.61156    0.87649    0.07353   1.00
H2       0.56467    0.90795    0.18142   1.00
C6       0.53928    0.85367    0.19866   1.00
C6       0.60601    0.86239    0.17164   1.00
H2       0.50329    0.86192    0.07669   1.00
C6       0.54013    0.81246    0.08728   1.00
C6       0.48205    0.82999    0.12651   1.00
C6       0.45673    1.02606    0.15429   1.00
C6       0.43118    1.02421    0.22275   1.00
H2       0.47859    1.05797    0.20288   1.00
H2       0.48970    0.99327    0.27449   1.00
C6       0.54961    0.97779    0.28122   1.00
C6       0.52286    1.04595    0.28107   1.00
H2       0.57661    1.01578    0.21125   1.00
C6       0.56731    1.00185    0.15164   1.00
C6       0.55411    1.06654    0.18256   1.00
H2       0.54519    0.95188    0.06154   1.00
H2       0.54637    0.90820    0.03410   1.00
H2       0.58757    0.93925    0.03583   1.00
H2       0.63869    0.89265    0.06892   1.00
H2       0.61803    0.85248    0.09322   1.00
H2       0.60370    0.86383    0.04536   1.00
H2       0.55064    0.85721    0.22828   1.00
H2       0.50880    0.86250    0.19968   1.00
H2       0.54072    0.82267    0.19148   1.00
H2       0.62663    0.88126    0.15638   1.00
H2       0.61604    0.86096    0.20192   1.00
H2       0.60787    0.83298    0.15950   1.00
H2       0.55955    0.80112    0.10986   1.00
H2       0.52105    0.78863    0.07792   1.00
H2       0.55729    0.81988    0.06168   1.00
H2       0.49212    0.80688    0.14598   1.00
H2       0.46640    0.85089    0.14432   1.00
H2       0.46067    0.81692    0.10672   1.00
H2       0.43939    1.00015    0.14812   1.00
H2       0.43868    1.05132    0.14691   1.00
H2       0.48158    1.02633    0.13452   1.00
H2       0.40989    1.04623    0.21375   1.00
H2       0.41722    0.99592    0.21926   1.00
H2       0.43638    1.02901    0.25378   1.00
H2       0.54655    0.97665    0.31298   1.00
H2       0.54732    0.94779    0.27065   1.00
H2       0.57889    0.98843    0.27465   1.00
H2       0.50067    1.06636    0.27084   1.00
H2       0.52037    1.04469    0.31288   1.00
H2       0.55160    1.05786    0.27415   1.00
H2       0.54567    1.00427    0.12844   1.00
H2       0.59463    1.01452    0.14119   1.00
H2       0.57273    0.97105    0.15666   1.00
H2       0.58346    1.07619    0.17456   1.00
H2       0.53447    1.07465    0.15878   1.00
H2       0.54577    1.08306    0.20843   1.00
C4       0.91219    0.41383    0.68584   1.00
C4       0.91245    0.41451    0.64412   1.00
C3       0.87810    0.41971    0.70864   1.00
C3       0.87947    0.42463    0.62116   1.00
C3       0.94796    0.40753    0.70623   1.00
C3       0.94744    0.40447    0.62386   1.00
C2       0.91443    0.41395    0.77012   1.00
C2       0.91557    0.41605    0.55988   1.00
C3       0.87919    0.42000    0.74962   1.00
C3       0.88086    0.42504    0.58019   1.00
C3       0.94833    0.40719    0.74758   1.00
C3       0.94869    0.40668    0.58262   1.00
H1       0.85145    0.42383    0.69615   1.00
H1       0.85354    0.43225    0.63352   1.00
C5       0.98311    0.40143    0.68520   1.00
C5       0.98108    0.39262    0.64480   1.00
H1       0.85366    0.42469    0.76455   1.00
H1       0.85601    0.43226    0.56510   1.00
H1       0.97400    0.40156    0.76180   1.00
H1       0.97462    0.40183    0.56868   1.00
O3       1.01832    0.40188    0.70461   1.00
O3       1.01239    0.37552    0.62599   1.00
Si1      1.04330    0.44236    0.70747   1.00
Si1      1.01147    0.32862    0.61779   1.00
C6       1.07913    0.42543    0.74038   1.00
C6       1.06341    0.45135    0.66098   1.00
C6       1.01645    0.48149    0.72753   1.00
C6       0.96949    0.30217    0.63193   1.00
C6       1.01723    0.32558    0.56698   1.00
C6       1.05336    0.30851    0.63977   1.00
C6       1.06355    0.40276    0.77694   1.00
H2       1.09455    0.40369    0.72291   1.00
C6       1.11156    0.45351    0.75647   1.00
H2       1.06467    0.42205    0.64858   1.00
C6       1.03928    0.47633    0.63134   1.00
C6       1.10601    0.46761    0.65836   1.00
H2       1.00329    0.46808    0.75331   1.00
C6       1.04013    0.51754    0.74272   1.00
C6       0.98205    0.50001    0.70349   1.00
C6       0.95673    0.30394    0.67571   1.00
C6       0.93118    0.30579    0.60725   1.00
H2       0.97859    0.27203    0.62712   1.00
H2       0.98970    0.33673    0.55551   1.00
C6       1.04961    0.35221    0.54878   1.00
C6       1.02286    0.28405    0.54893   1.00
H2       1.07661    0.31422    0.61875   1.00
C6       1.06731    0.32815    0.67836   1.00
C6       1.05411    0.26346    0.64744   1.00
H2       1.04519    0.37812    0.76846   1.00
H2       1.04637    0.42180    0.79590   1.00
H2       1.08757    0.39075    0.79417   1.00
H2       1.13869    0.43735    0.76108   1.00
H2       1.11803    0.47752    0.73678   1.00
H2       1.10370    0.46617    0.78464   1.00
H2       1.05064    0.47279    0.60172   1.00
H2       1.00880    0.46750    0.63032   1.00
H2       1.04072    0.50733    0.63852   1.00
H2       1.12663    0.44874    0.67362   1.00
H2       1.11604    0.46904    0.62808   1.00
H2       1.10787    0.49702    0.67050   1.00
H2       1.05955    0.52888    0.72014   1.00
H2       1.02105    0.54137    0.75208   1.00
H2       1.05729    0.51012    0.76832   1.00
H2       0.99212    0.52312    0.68402   1.00
H2       0.96640    0.47911    0.68568   1.00
H2       0.96067    0.51308    0.72328   1.00
H2       0.93939    0.32985    0.68188   1.00
H2       0.93868    0.27868    0.68309   1.00
H2       0.98158    0.30367    0.69548   1.00
H2       0.90989    0.28377    0.61625   1.00
H2       0.91722    0.33408    0.61074   1.00
H2       0.93638    0.30099    0.57622   1.00
H2       1.04655    0.35335    0.51702   1.00
H2       1.04732    0.38221    0.55935   1.00
H2       1.07889    0.34157    0.55535   1.00
H2       1.00067    0.26364    0.55916   1.00
H2       1.02037    0.28531    0.51712   1.00
H2       1.05160    0.27214    0.55585   1.00
H2       1.04567    0.32573    0.70156   1.00
H2       1.09463    0.31548    0.68881   1.00
H2       1.07273    0.35895    0.67334   1.00
H2       1.08346    0.25381    0.65544   1.00
H2       1.03447    0.25535    0.67122   1.00
H2       1.04577    0.24694    0.62157   1.00
C4       0.91383    0.68584    0.41219   1.00
C4       0.91451    0.64412    0.41245   1.00
C3       0.91971    0.70864    0.37810   1.00
C3       0.92463    0.62116    0.37947   1.00
C3       0.90753    0.70623    0.44796   1.00
C3       0.90447    0.62386    0.44744   1.00
C2       0.91395    0.77012    0.41443   1.00
C2       0.91605    0.55988    0.41557   1.00
C3       0.92000    0.74962    0.37919   1.00
C3       0.92504    0.58019    0.38086   1.00
C3       0.90719    0.74758    0.44833   1.00
C3       0.90668    0.58262    0.44869   1.00
H1       0.92383    0.69615    0.35145   1.00
H1       0.93225    0.63352    0.35354   1.00
C5       0.90143    0.68520    0.48311   1.00
C5       0.89262    0.64480    0.48108   1.00
H1       0.92469    0.76455    0.35366   1.00
H1       0.93226    0.56510    0.35601   1.00
H1       0.90156    0.76180    0.47400   1.00
H1       0.90183    0.56868    0.47462   1.00
O3       0.90188    0.70461    0.51832   1.00
O3       0.87552    0.62599    0.51239   1.00
Si1      0.94236    0.70747    0.54330   1.00
Si1      0.82862    0.61779    0.51147   1.00
C6       0.92543    0.74038    0.57913   1.00
C6       0.95135    0.66098    0.56341   1.00
C6       0.98149    0.72753    0.51645   1.00
C6       0.80217    0.63193    0.46949   1.00
C6       0.82558    0.56698    0.51723   1.00
C6       0.80851    0.63977    0.55336   1.00
C6       0.90276    0.77694    0.56355   1.00
H2       0.90369    0.72291    0.59455   1.00
C6       0.95351    0.75647    0.61156   1.00
H2       0.92205    0.64858    0.56467   1.00
C6       0.97633    0.63134    0.53928   1.00
C6       0.96761    0.65836    0.60601   1.00
H2       0.96808    0.75331    0.50329   1.00
C6       1.01754    0.74272    0.54013   1.00
C6       1.00001    0.70349    0.48205   1.00
C6       0.80394    0.67571    0.45673   1.00
C6       0.80579    0.60725    0.43118   1.00
H2       0.77203    0.62712    0.47859   1.00
H2       0.83673    0.55551    0.48970   1.00
C6       0.85221    0.54878    0.54961   1.00
C6       0.78405    0.54893    0.52286   1.00
H2       0.81422    0.61875    0.57661   1.00
C6       0.82815    0.67836    0.56731   1.00
C6       0.76346    0.64744    0.55411   1.00
H2       0.87812    0.76846    0.54519   1.00
H2       0.92180    0.79590    0.54637   1.00
H2       0.89075    0.79417    0.58757   1.00
H2       0.93735    0.76108    0.63869   1.00
H2       0.97752    0.73678    0.61803   1.00
H2       0.96617    0.78464    0.60370   1.00
H2       0.97279    0.60172    0.55064   1.00
H2       0.96750    0.63032    0.50880   1.00
H2       1.00733    0.63852    0.54072   1.00
H2       0.94874    0.67362    0.62663   1.00
H2       0.96904    0.62808    0.61604   1.00
H2       0.99702    0.67050    0.60787   1.00
H2       1.02888    0.72014    0.55955   1.00
H2       1.04137    0.75208    0.52105   1.00
H2       1.01012    0.76832    0.55729   1.00
H2       1.02312    0.68402    0.49212   1.00
H2       0.97911    0.68568    0.46640   1.00
H2       1.01308    0.72328    0.46067   1.00
H2       0.82985    0.68188    0.43939   1.00
H2       0.77868    0.68309    0.43868   1.00
H2       0.80367    0.69548    0.48158   1.00
H2       0.78377    0.61625    0.40989   1.00
H2       0.83408    0.61074    0.41722   1.00
H2       0.80099    0.57622    0.43638   1.00
H2       0.85335    0.51702    0.54655   1.00
H2       0.88221    0.55935    0.54732   1.00
H2       0.84157    0.55535    0.57889   1.00
H2       0.76364    0.55916    0.50067   1.00
H2       0.78531    0.51712    0.52037   1.00
H2       0.77214    0.55585    0.55160   1.00
H2       0.82573    0.70156    0.54567   1.00
H2       0.81548    0.68881    0.59463   1.00
H2       0.85895    0.67334    0.57273   1.00
H2       0.75381    0.65544    0.58346   1.00
H2       0.75535    0.67122    0.53447   1.00
H2       0.74694    0.62157    0.54577   1.00
C4       0.64416    0.41219    0.41617   1.00
C4       0.68588    0.41245    0.41549   1.00
C3       0.62136    0.37810    0.41029   1.00
C3       0.70884    0.37947    0.40537   1.00
C3       0.62377    0.44796    0.42247   1.00
C3       0.70614    0.44744    0.42553   1.00
C2       0.55988    0.41443    0.41605   1.00
C2       0.77012    0.41557    0.41395   1.00
C3       0.58038    0.37919    0.41000   1.00
C3       0.74981    0.38086    0.40496   1.00
C3       0.58242    0.44833    0.42281   1.00
C3       0.74738    0.44869    0.42332   1.00
H1       0.63385    0.35145    0.40617   1.00
H1       0.69648    0.35354    0.39775   1.00
C5       0.64480    0.48311    0.42857   1.00
C5       0.68520    0.48108    0.43738   1.00
H1       0.56545    0.35366    0.40531   1.00
H1       0.76490    0.35601    0.39774   1.00
H1       0.56820    0.47400    0.42844   1.00
H1       0.76132    0.47462    0.42817   1.00
O3       0.62539    0.51832    0.42812   1.00
O3       0.70401    0.51239    0.45448   1.00
Si1      0.62253    0.54330    0.38764   1.00
Si1      0.71221    0.51147    0.50138   1.00
C6       0.58962    0.57913    0.40457   1.00
C6       0.66902    0.56341    0.37865   1.00
C6       0.60247    0.51645    0.34851   1.00
C6       0.69807    0.46949    0.52783   1.00
C6       0.76302    0.51723    0.50442   1.00
C6       0.69023    0.55336    0.52149   1.00
C6       0.55306    0.56355    0.42724   1.00
H2       0.60709    0.59455    0.42631   1.00
C6       0.57353    0.61156    0.37649   1.00
H2       0.68142    0.56467    0.40795   1.00
C6       0.69866    0.53928    0.35367   1.00
C6       0.67164    0.60601    0.36239   1.00
H2       0.57669    0.50329    0.36192   1.00
C6       0.58728    0.54013    0.31246   1.00
C6       0.62651    0.48205    0.32999   1.00
C6       0.65429    0.45673    0.52606   1.00
C6       0.72275    0.43118    0.52421   1.00
H2       0.70288    0.47859    0.55797   1.00
H2       0.77449    0.48970    0.49327   1.00
C6       0.78122    0.54961    0.47779   1.00
C6       0.78107    0.52286    0.54595   1.00
H2       0.71125    0.57661    0.51578   1.00
C6       0.65164    0.56731    0.50185   1.00
C6       0.68256    0.55411    0.56654   1.00
H2       0.56154    0.54519    0.45188   1.00
H2       0.53410    0.54637    0.40820   1.00
H2       0.53583    0.58757    0.43925   1.00
H2       0.56892    0.63869    0.39265   1.00
H2       0.59322    0.61803    0.35248   1.00
H2       0.54536    0.60370    0.36383   1.00
H2       0.72828    0.55064    0.35721   1.00
H2       0.69968    0.50880    0.36250   1.00
H2       0.69148    0.54072    0.32267   1.00
H2       0.65638    0.62663    0.38126   1.00
H2       0.70192    0.61604    0.36096   1.00
H2       0.65950    0.60787    0.33298   1.00
H2       0.60986    0.55955    0.30112   1.00
H2       0.57792    0.52105    0.28863   1.00
H2       0.56168    0.55729    0.31988   1.00
H2       0.64598    0.49212    0.30688   1.00
H2       0.64432    0.46640    0.35089   1.00
H2       0.60672    0.46067    0.31692   1.00
H2       0.64812    0.43939    0.50015   1.00
H2       0.64691    0.43868    0.55132   1.00
H2       0.63452    0.48158    0.52633   1.00
H2       0.71375    0.40989    0.54623   1.00
H2       0.71926    0.41722    0.49592   1.00
H2       0.75378    0.43638    0.52901   1.00
H2       0.81298    0.54655    0.47665   1.00
H2       0.77065    0.54732    0.44779   1.00
H2       0.77465    0.57889    0.48843   1.00
H2       0.77084    0.50067    0.56636   1.00
H2       0.81288    0.52037    0.54469   1.00
H2       0.77415    0.55160    0.55786   1.00
H2       0.62844    0.54567    0.50427   1.00
H2       0.64119    0.59463    0.51452   1.00
H2       0.65666    0.57273    0.47105   1.00
H2       0.67456    0.58346    0.57619   1.00
H2       0.65878    0.53447    0.57465   1.00
H2       0.70843    0.54577    0.58306   1.00
C4       1.18584    0.41219    0.41383   1.00
C4       1.14412    0.41245    0.41451   1.00
C3       1.20864    0.37810    0.41971   1.00
C3       1.12116    0.37947    0.42463   1.00
C3       1.20623    0.44796    0.40753   1.00
C3       1.12386    0.44744    0.40447   1.00
C2       1.27012    0.41443    0.41395   1.00
C2       1.05988    0.41557    0.41605   1.00
C3       1.24962    0.37919    0.42000   1.00
C3       1.08019    0.38086    0.42504   1.00
C3       1.24758    0.44833    0.40719   1.00
C3       1.08262    0.44869    0.40668   1.00
H1       1.19615    0.35145    0.42383   1.00
H1       1.13352    0.35354    0.43225   1.00
C5       1.18520    0.48311    0.40143   1.00
C5       1.14480    0.48108    0.39262   1.00
H1       1.26455    0.35366    0.42469   1.00
H1       1.06510    0.35601    0.43226   1.00
H1       1.26180    0.47400    0.40156   1.00
H1       1.06868    0.47462    0.40183   1.00
O3       1.20461    0.51832    0.40188   1.00
O3       1.12599    0.51239    0.37552   1.00
Si1      1.20747    0.54330    0.44236   1.00
Si1      1.11779    0.51147    0.32862   1.00
C6       1.24038    0.57913    0.42543   1.00
C6       1.16098    0.56341    0.45135   1.00
C6       1.22753    0.51645    0.48149   1.00
C6       1.13193    0.46949    0.30217   1.00
C6       1.06698    0.51723    0.32558   1.00
C6       1.13977    0.55336    0.30851   1.00
C6       1.27694    0.56355    0.40276   1.00
H2       1.22291    0.59455    0.40369   1.00
C6       1.25647    0.61156    0.45351   1.00
H2       1.14858    0.56467    0.42205   1.00
C6       1.13134    0.53928    0.47633   1.00
C6       1.15836    0.60601    0.46761   1.00
H2       1.25331    0.50329    0.46808   1.00
C6       1.24272    0.54013    0.51754   1.00
C6       1.20349    0.48205    0.50001   1.00
C6       1.17571    0.45673    0.30394   1.00
C6       1.10725    0.43118    0.30579   1.00
H2       1.12712    0.47859    0.27203   1.00
H2       1.05551    0.48970    0.33673   1.00
C6       1.04878    0.54961    0.35221   1.00
C6       1.04893    0.52286    0.28405   1.00
H2       1.11875    0.57661    0.31422   1.00
C6       1.17836    0.56731    0.32815   1.00
C6       1.14744    0.55411    0.26346   1.00
H2       1.26846    0.54519    0.37812   1.00
H2       1.29590    0.54637    0.42180   1.00
H2       1.29417    0.58757    0.39075   1.00
H2       1.26108    0.63869    0.43735   1.00
H2       1.23678    0.61803    0.47752   1.00
H2       1.28464    0.60370    0.46617   1.00
H2       1.10172    0.55064    0.47279   1.00
H2       1.13032    0.50880    0.46750   1.00
H2       1.13852    0.54072    0.50733   1.00
H2       1.17362    0.62663    0.44874   1.00
H2       1.12808    0.61604    0.46904   1.00
H2       1.17050    0.60787    0.49702   1.00
H2       1.22014    0.55955    0.52888   1.00
H2       1.25208    0.52105    0.54137   1.00
H2       1.26832    0.55729    0.51012   1.00
H2       1.18402    0.49212    0.52312   1.00
H2       1.18568    0.46640    0.47911   1.00
H2       1.22328    0.46067    0.51308   1.00
H2       1.18188    0.43939    0.32985   1.00
H2       1.18309    0.43868    0.27868   1.00
H2       1.19548    0.48158    0.30367   1.00
H2       1.11625    0.40989    0.28377   1.00
H2       1.11074    0.41722    0.33408   1.00
H2       1.07622    0.43638    0.30099   1.00
H2       1.01702    0.54655    0.35335   1.00
H2       1.05935    0.54732    0.38221   1.00
H2       1.05535    0.57889    0.34157   1.00
H2       1.05916    0.50067    0.26364   1.00
H2       1.01712    0.52037    0.28531   1.00
H2       1.05585    0.55160    0.27214   1.00
H2       1.20156    0.54567    0.32573   1.00
H2       1.18881    0.59463    0.31548   1.00
H2       1.17334    0.57273    0.35895   1.00
H2       1.15544    0.58346    0.25381   1.00
H2       1.17122    0.53447    0.25535   1.00
H2       1.12157    0.54577    0.24694   1.00
C4       0.91617    0.14416    0.41219   1.00
C4       0.91549    0.18588    0.41245   1.00
C3       0.91029    0.12136    0.37810   1.00
C3       0.90537    0.20884    0.37947   1.00
C3       0.92247    0.12377    0.44796   1.00
C3       0.92553    0.20614    0.44744   1.00
C2       0.91605    0.05988    0.41443   1.00
C2       0.91395    0.27012    0.41557   1.00
C3       0.91000    0.08038    0.37919   1.00
C3       0.90496    0.24981    0.38086   1.00
C3       0.92281    0.08242    0.44833   1.00
C3       0.92332    0.24738    0.44869   1.00
H1       0.90617    0.13385    0.35145   1.00
H1       0.89775    0.19648    0.35354   1.00
C5       0.92857    0.14480    0.48311   1.00
C5       0.93738    0.18520    0.48108   1.00
H1       0.90531    0.06545    0.35366   1.00
H1       0.89774    0.26490    0.35601   1.00
H1       0.92844    0.06820    0.47400   1.00
H1       0.92817    0.26132    0.47462   1.00
O3       0.92812    0.12539    0.51832   1.00
O3       0.95448    0.20401    0.51239   1.00
Si1      0.88764    0.12253    0.54330   1.00
Si1      1.00138    0.21221    0.51147   1.00
C6       0.90457    0.08962    0.57913   1.00
C6       0.87865    0.16902    0.56341   1.00
C6       0.84851    0.10247    0.51645   1.00
C6       1.02783    0.19807    0.46949   1.00
C6       1.00442    0.26302    0.51723   1.00
C6       1.02149    0.19023    0.55336   1.00
C6       0.92724    0.05306    0.56355   1.00
H2       0.92631    0.10709    0.59455   1.00
C6       0.87649    0.07353    0.61156   1.00
H2       0.90795    0.18142    0.56467   1.00
C6       0.85367    0.19866    0.53928   1.00
C6       0.86239    0.17164    0.60601   1.00
H2       0.86192    0.07669    0.50329   1.00
C6       0.81246    0.08728    0.54013   1.00
C6       0.82999    0.12651    0.48205   1.00
C6       1.02606    0.15429    0.45673   1.00
C6       1.02421    0.22275    0.43118   1.00
H2       1.05797    0.20288    0.47859   1.00
H2       0.99327    0.27449    0.48970   1.00
C6       0.97779    0.28122    0.54961   1.00
C6       1.04595    0.28107    0.52286   1.00
H2       1.01578    0.21125    0.57661   1.00
C6       1.00185    0.15164    0.56731   1.00
C6       1.06654    0.18256    0.55411   1.00
H2       0.95188    0.06154    0.54519   1.00
H2       0.90820    0.03410    0.54637   1.00
H2       0.93925    0.03583    0.58757   1.00
H2       0.89265    0.06892    0.63869   1.00
H2       0.85248    0.09322    0.61803   1.00
H2       0.86383    0.04536    0.60370   1.00
H2       0.85721    0.22828    0.55064   1.00
H2       0.86250    0.19968    0.50880   1.00
H2       0.82267    0.19148    0.54072   1.00
H2       0.88126    0.15638    0.62663   1.00
H2       0.86096    0.20192    0.61604   1.00
H2       0.83298    0.15950    0.60787   1.00
H2       0.80112    0.10986    0.55955   1.00
H2       0.78863    0.07792    0.52105   1.00
H2       0.81988    0.06168    0.55729   1.00
H2       0.80688    0.14598    0.49212   1.00
H2       0.85089    0.14432    0.46640   1.00
H2       0.81692    0.10672    0.46067   1.00
H2       1.00015    0.14812    0.43939   1.00
H2       1.05132    0.14691    0.43868   1.00
H2       1.02633    0.13452    0.48158   1.00
H2       1.04623    0.21375    0.40989   1.00
H2       0.99592    0.21926    0.41722   1.00
H2       1.02901    0.25378    0.43638   1.00
H2       0.97665    0.31298    0.54655   1.00
H2       0.94779    0.27065    0.54732   1.00
H2       0.98843    0.27465    0.57889   1.00
H2       1.06636    0.27084    0.50067   1.00
H2       1.04469    0.31288    0.52037   1.00
H2       1.05786    0.27415    0.55160   1.00
H2       1.00427    0.12844    0.54567   1.00
H2       1.01452    0.14119    0.59463   1.00
H2       0.97105    0.15666    0.57273   1.00
H2       1.07619    0.17456    0.58346   1.00
H2       1.07465    0.15878    0.53447   1.00
H2       1.08306    0.20843    0.54577   1.00
C4       0.91219    0.41617    0.14416   1.00
C4       0.91245    0.41549    0.18588   1.00
C3       0.87810    0.41029    0.12136   1.00
C3       0.87947    0.40537    0.20884   1.00
C3       0.94796    0.42247    0.12377   1.00
C3       0.94744    0.42553    0.20614   1.00
C2       0.91443    0.41605    0.05988   1.00
C2       0.91557    0.41395    0.27012   1.00
C3       0.87919    0.41000    0.08038   1.00
C3       0.88086    0.40496    0.24981   1.00
C3       0.94833    0.42281    0.08242   1.00
C3       0.94869    0.42332    0.24738   1.00
H1       0.85145    0.40617    0.13385   1.00
H1       0.85354    0.39775    0.19648   1.00
C5       0.98311    0.42857    0.14480   1.00
C5       0.98108    0.43738    0.18520   1.00
H1       0.85366    0.40531    0.06545   1.00
H1       0.85601    0.39774    0.26490   1.00
H1       0.97400    0.42844    0.06820   1.00
H1       0.97462    0.42817    0.26132   1.00
O3       1.01832    0.42812    0.12539   1.00
O3       1.01239    0.45448    0.20401   1.00
Si1      1.04330    0.38764    0.12253   1.00
Si1      1.01147    0.50138    0.21221   1.00
C6       1.07913    0.40457    0.08962   1.00
C6       1.06341    0.37865    0.16902   1.00
C6       1.01645    0.34851    0.10247   1.00
C6       0.96949    0.52783    0.19807   1.00
C6       1.01723    0.50442    0.26302   1.00
C6       1.05336    0.52149    0.19023   1.00
C6       1.06355    0.42724    0.05306   1.00
H2       1.09455    0.42631    0.10709   1.00
C6       1.11156    0.37649    0.07353   1.00
H2       1.06467    0.40795    0.18142   1.00
C6       1.03928    0.35367    0.19866   1.00
C6       1.10601    0.36239    0.17164   1.00
H2       1.00329    0.36192    0.07669   1.00
C6       1.04013    0.31246    0.08728   1.00
C6       0.98205    0.32999    0.12651   1.00
C6       0.95673    0.52606    0.15429   1.00
C6       0.93118    0.52421    0.22275   1.00
H2       0.97859    0.55797    0.20288   1.00
H2       0.98970    0.49327    0.27449   1.00
C6       1.04961    0.47779    0.28122   1.00
C6       1.02286    0.54595    0.28107   1.00
H2       1.07661    0.51578    0.21125   1.00
C6       1.06731    0.50185    0.15164   1.00
C6       1.05411    0.56654    0.18256   1.00
H2       1.04519    0.45188    0.06154   1.00
H2       1.04637    0.40820    0.03410   1.00
H2       1.08757    0.43925    0.03583   1.00
H2       1.13869    0.39265    0.06892   1.00
H2       1.11803    0.35248    0.09322   1.00
H2       1.10370    0.36383    0.04536   1.00
H2       1.05064    0.35721    0.22828   1.00
H2       1.00880    0.36250    0.19968   1.00
H2       1.04072    0.32267    0.19148   1.00
H2       1.12663    0.38126    0.15638   1.00
H2       1.11604    0.36096    0.20192   1.00
H2       1.10787    0.33298    0.15950   1.00
H2       1.05955    0.30112    0.10986   1.00
H2       1.02105    0.28863    0.07792   1.00
H2       1.05729    0.31988    0.06168   1.00
H2       0.99212    0.30688    0.14598   1.00
H2       0.96640    0.35089    0.14432   1.00
H2       0.96067    0.31692    0.10672   1.00
H2       0.93939    0.50015    0.14812   1.00
H2       0.93868    0.55132    0.14691   1.00
H2       0.98158    0.52633    0.13452   1.00
H2       0.90989    0.54623    0.21375   1.00
H2       0.91722    0.49592    0.21926   1.00
H2       0.93638    0.52901    0.25378   1.00
H2       1.04655    0.47665    0.31298   1.00
H2       1.04732    0.44779    0.27065   1.00
H2       1.07889    0.48843    0.27465   1.00
H2       1.00067    0.56636    0.27084   1.00
H2       1.02037    0.54469    0.31288   1.00
H2       1.05160    0.55786    0.27415   1.00
H2       1.04567    0.50427    0.12844   1.00
H2       1.09463    0.51452    0.14119   1.00
H2       1.07273    0.47105    0.15666   1.00
H2       1.08346    0.57619    0.17456   1.00
H2       1.03447    0.57465    0.15878   1.00
H2       1.04577    0.58306    0.20843   1.00
