data_IRMOF10_SG202_interpen_Ligand8cp_label_d.

_audit_creation_method             'generated by an auxiliary program of Tobunporous'

_symmetry_space_group_name_H-M     'P 1'
_symmetry_Int_Tables_number        1
_symmetry_cell_setting             triclinic

_cell_length_a                    34.2800
_cell_length_b                    34.2800
_cell_length_c                    34.2800
_cell_angle_alpha                 90.0000
_cell_angle_beta                  90.0000
_cell_angle_gamma                 90.0000

loop_
_atom_site_label
_atom_site_fract_x
_atom_site_fract_y
_atom_site_fract_z
_atom_site_occupancy
O1       0.75000    0.75000    0.75000   1.00
Zn1      0.71720    0.78280    0.78280   1.00
Zn1      0.78280    0.71720    0.78280   1.00
Zn1      0.78280    0.78280    0.71720   1.00
Zn1      0.71720    0.71720    0.71720   1.00
O2       0.72650    0.77350    0.83820   1.00
O2       0.72650    0.83820    0.77350   1.00
O2       0.66180    0.77350    0.77350   1.00
O2       0.77350    0.72650    0.83820   1.00
O2       0.83820    0.72650    0.77350   1.00
O2       0.77350    0.66180    0.77350   1.00
O2       0.77350    0.83820    0.72650   1.00
O2       0.83820    0.77350    0.72650   1.00
O2       0.77350    0.77350    0.66180   1.00
O2       0.66180    0.72650    0.72650   1.00
O2       0.72650    0.66180    0.72650   1.00
O2       0.72650    0.72650    0.66180   1.00
C1       0.75000    0.75000    0.85520   1.00
C1       0.75000    0.85520    0.75000   1.00
C1       0.64480    0.75000    0.75000   1.00
C1       0.85520    0.75000    0.75000   1.00
C1       0.75000    0.64480    0.75000   1.00
C1       0.75000    0.75000    0.64480   1.00
O1       0.25000    0.25000    0.75000   1.00
Zn1      0.21720    0.28280    0.78280   1.00
Zn1      0.28280    0.21720    0.78280   1.00
Zn1      0.28280    0.28280    0.71720   1.00
Zn1      0.21720    0.21720    0.71720   1.00
O2       0.22650    0.27350    0.83820   1.00
O2       0.22650    0.33820    0.77350   1.00
O2       0.16180    0.27350    0.77350   1.00
O2       0.27350    0.22650    0.83820   1.00
O2       0.33820    0.22650    0.77350   1.00
O2       0.27350    0.16180    0.77350   1.00
O2       0.27350    0.33820    0.72650   1.00
O2       0.33820    0.27350    0.72650   1.00
O2       0.27350    0.27350    0.66180   1.00
O2       0.16180    0.22650    0.72650   1.00
O2       0.22650    0.16180    0.72650   1.00
O2       0.22650    0.22650    0.66180   1.00
C1       0.25000    0.25000    0.85520   1.00
C1       0.25000    0.35520    0.75000   1.00
C1       0.14480    0.25000    0.75000   1.00
C1       0.35520    0.25000    0.75000   1.00
C1       0.25000    0.14480    0.75000   1.00
C1       0.25000    0.25000    0.64480   1.00
O1       0.25000    0.75000    0.25000   1.00
Zn1      0.21720    0.78280    0.28280   1.00
Zn1      0.28280    0.71720    0.28280   1.00
Zn1      0.28280    0.78280    0.21720   1.00
Zn1      0.21720    0.71720    0.21720   1.00
O2       0.22650    0.77350    0.33820   1.00
O2       0.22650    0.83820    0.27350   1.00
O2       0.16180    0.77350    0.27350   1.00
O2       0.27350    0.72650    0.33820   1.00
O2       0.33820    0.72650    0.27350   1.00
O2       0.27350    0.66180    0.27350   1.00
O2       0.27350    0.83820    0.22650   1.00
O2       0.33820    0.77350    0.22650   1.00
O2       0.27350    0.77350    0.16180   1.00
O2       0.16180    0.72650    0.22650   1.00
O2       0.22650    0.66180    0.22650   1.00
O2       0.22650    0.72650    0.16180   1.00
C1       0.25000    0.75000    0.35520   1.00
C1       0.25000    0.85520    0.25000   1.00
C1       0.14480    0.75000    0.25000   1.00
C1       0.35520    0.75000    0.25000   1.00
C1       0.25000    0.64480    0.25000   1.00
C1       0.25000    0.75000    0.14480   1.00
O1       0.75000    0.25000    0.25000   1.00
Zn1      0.71720    0.28280    0.28280   1.00
Zn1      0.78280    0.21720    0.28280   1.00
Zn1      0.78280    0.28280    0.21720   1.00
Zn1      0.71720    0.21720    0.21720   1.00
O2       0.72650    0.27350    0.33820   1.00
O2       0.72650    0.33820    0.27350   1.00
O2       0.66180    0.27350    0.27350   1.00
O2       0.77350    0.22650    0.33820   1.00
O2       0.83820    0.22650    0.27350   1.00
O2       0.77350    0.16180    0.27350   1.00
O2       0.77350    0.33820    0.22650   1.00
O2       0.83820    0.27350    0.22650   1.00
O2       0.77350    0.27350    0.16180   1.00
O2       0.66180    0.22650    0.22650   1.00
O2       0.72650    0.16180    0.22650   1.00
O2       0.72650    0.22650    0.16180   1.00
C1       0.75000    0.25000    0.35520   1.00
C1       0.75000    0.35520    0.25000   1.00
C1       0.64480    0.25000    0.25000   1.00
C1       0.85520    0.25000    0.25000   1.00
C1       0.75000    0.14480    0.25000   1.00
C1       0.75000    0.25000    0.14480   1.00
O1       0.25000    0.25000    0.25000   1.00
Zn1      0.28280    0.21720    0.21720   1.00
Zn1      0.21720    0.28280    0.21720   1.00
Zn1      0.21720    0.21720    0.28280   1.00
Zn1      0.28280    0.28280    0.28280   1.00
O2       0.27350    0.22650    0.16180   1.00
O2       0.27350    0.16180    0.22650   1.00
O2       0.33820    0.22650    0.22650   1.00
O2       0.22650    0.27350    0.16180   1.00
O2       0.16180    0.27350    0.22650   1.00
O2       0.22650    0.33820    0.22650   1.00
O2       0.22650    0.16180    0.27350   1.00
O2       0.16180    0.22650    0.27350   1.00
O2       0.22650    0.22650    0.33820   1.00
O2       0.33820    0.27350    0.27350   1.00
O2       0.27350    0.33820    0.27350   1.00
O2       0.27350    0.27350    0.33820   1.00
C1       0.25000    0.25000    0.14480   1.00
C1       0.25000    0.14480    0.25000   1.00
C1       0.35520    0.25000    0.25000   1.00
C1       0.14480    0.25000    0.25000   1.00
C1       0.25000    0.35520    0.25000   1.00
C1       0.25000    0.25000    0.35520   1.00
O1       0.75000    0.75000    0.25000   1.00
Zn1      0.78280    0.71720    0.21720   1.00
Zn1      0.71720    0.78280    0.21720   1.00
Zn1      0.71720    0.71720    0.28280   1.00
Zn1      0.78280    0.78280    0.28280   1.00
O2       0.77350    0.72650    0.16180   1.00
O2       0.77350    0.66180    0.22650   1.00
O2       0.83820    0.72650    0.22650   1.00
O2       0.72650    0.77350    0.16180   1.00
O2       0.66180    0.77350    0.22650   1.00
O2       0.72650    0.83820    0.22650   1.00
O2       0.72650    0.66180    0.27350   1.00
O2       0.66180    0.72650    0.27350   1.00
O2       0.72650    0.72650    0.33820   1.00
O2       0.83820    0.77350    0.27350   1.00
O2       0.77350    0.83820    0.27350   1.00
O2       0.77350    0.77350    0.33820   1.00
C1       0.75000    0.75000    0.14480   1.00
C1       0.75000    0.64480    0.25000   1.00
C1       0.85520    0.75000    0.25000   1.00
C1       0.64480    0.75000    0.25000   1.00
C1       0.75000    0.85520    0.25000   1.00
C1       0.75000    0.75000    0.35520   1.00
O1       0.75000    0.25000    0.75000   1.00
Zn1      0.78280    0.21720    0.71720   1.00
Zn1      0.71720    0.28280    0.71720   1.00
Zn1      0.71720    0.21720    0.78280   1.00
Zn1      0.78280    0.28280    0.78280   1.00
O2       0.77350    0.22650    0.66180   1.00
O2       0.77350    0.16180    0.72650   1.00
O2       0.83820    0.22650    0.72650   1.00
O2       0.72650    0.27350    0.66180   1.00
O2       0.66180    0.27350    0.72650   1.00
O2       0.72650    0.33820    0.72650   1.00
O2       0.72650    0.16180    0.77350   1.00
O2       0.66180    0.22650    0.77350   1.00
O2       0.72650    0.22650    0.83820   1.00
O2       0.83820    0.27350    0.77350   1.00
O2       0.77350    0.33820    0.77350   1.00
O2       0.77350    0.27350    0.83820   1.00
C1       0.75000    0.25000    0.64480   1.00
C1       0.75000    0.14480    0.75000   1.00
C1       0.85520    0.25000    0.75000   1.00
C1       0.64480    0.25000    0.75000   1.00
C1       0.75000    0.35520    0.75000   1.00
C1       0.75000    0.25000    0.85520   1.00
O1       0.25000    0.75000    0.75000   1.00
Zn1      0.28280    0.71720    0.71720   1.00
Zn1      0.21720    0.78280    0.71720   1.00
Zn1      0.21720    0.71720    0.78280   1.00
Zn1      0.28280    0.78280    0.78280   1.00
O2       0.27350    0.72650    0.66180   1.00
O2       0.27350    0.66180    0.72650   1.00
O2       0.33820    0.72650    0.72650   1.00
O2       0.22650    0.77350    0.66180   1.00
O2       0.16180    0.77350    0.72650   1.00
O2       0.22650    0.83820    0.72650   1.00
O2       0.22650    0.66180    0.77350   1.00
O2       0.16180    0.72650    0.77350   1.00
O2       0.22650    0.72650    0.83820   1.00
O2       0.33820    0.77350    0.77350   1.00
O2       0.27350    0.83820    0.77350   1.00
O2       0.27350    0.77350    0.83820   1.00
C1       0.25000    0.75000    0.64480   1.00
C1       0.25000    0.64480    0.75000   1.00
C1       0.35520    0.75000    0.75000   1.00
C1       0.14480    0.75000    0.75000   1.00
C1       0.25000    0.85520    0.75000   1.00
C1       0.25000    0.75000    0.85520   1.00
O1       0.91500    0.91500    0.91500   1.00
Zn1      0.88220    0.94780    0.94780   1.00
Zn1      0.94780    0.88220    0.94780   1.00
Zn1      0.94780    0.94780    0.88220   1.00
Zn1      0.88220    0.88220    0.88220   1.00
O2       0.89150    0.93850    1.00320   1.00
O2       0.89150    1.00320    0.93850   1.00
O2       0.82680    0.93850    0.93850   1.00
O2       0.93850    0.89150    1.00320   1.00
O2       1.00320    0.89150    0.93850   1.00
O2       0.93850    0.82680    0.93850   1.00
O2       0.93850    1.00320    0.89150   1.00
O2       1.00320    0.93850    0.89150   1.00
O2       0.93850    0.93850    0.82680   1.00
O2       0.82680    0.89150    0.89150   1.00
O2       0.89150    0.82680    0.89150   1.00
O2       0.89150    0.89150    0.82680   1.00
C1       0.91500    0.91500    1.02020   1.00
C1       0.91500    1.02020    0.91500   1.00
C1       0.80980    0.91500    0.91500   1.00
C1       1.02020    0.91500    0.91500   1.00
C1       0.91500    0.80980    0.91500   1.00
C1       0.91500    0.91500    0.80980   1.00
O1       0.41500    0.41500    0.91500   1.00
Zn1      0.38220    0.44780    0.94780   1.00
Zn1      0.44780    0.38220    0.94780   1.00
Zn1      0.44780    0.44780    0.88220   1.00
Zn1      0.38220    0.38220    0.88220   1.00
O2       0.39150    0.43850    1.00320   1.00
O2       0.39150    0.50320    0.93850   1.00
O2       0.32680    0.43850    0.93850   1.00
O2       0.43850    0.39150    1.00320   1.00
O2       0.50320    0.39150    0.93850   1.00
O2       0.43850    0.32680    0.93850   1.00
O2       0.43850    0.50320    0.89150   1.00
O2       0.50320    0.43850    0.89150   1.00
O2       0.43850    0.43850    0.82680   1.00
O2       0.32680    0.39150    0.89150   1.00
O2       0.39150    0.32680    0.89150   1.00
O2       0.39150    0.39150    0.82680   1.00
C1       0.41500    0.41500    1.02020   1.00
C1       0.41500    0.52020    0.91500   1.00
C1       0.30980    0.41500    0.91500   1.00
C1       0.52020    0.41500    0.91500   1.00
C1       0.41500    0.30980    0.91500   1.00
C1       0.41500    0.41500    0.80980   1.00
O1       0.41500    0.91500    0.41500   1.00
Zn1      0.38220    0.94780    0.44780   1.00
Zn1      0.44780    0.88220    0.44780   1.00
Zn1      0.44780    0.94780    0.38220   1.00
Zn1      0.38220    0.88220    0.38220   1.00
O2       0.39150    0.93850    0.50320   1.00
O2       0.39150    1.00320    0.43850   1.00
O2       0.32680    0.93850    0.43850   1.00
O2       0.43850    0.89150    0.50320   1.00
O2       0.50320    0.89150    0.43850   1.00
O2       0.43850    0.82680    0.43850   1.00
O2       0.43850    1.00320    0.39150   1.00
O2       0.50320    0.93850    0.39150   1.00
O2       0.43850    0.93850    0.32680   1.00
O2       0.32680    0.89150    0.39150   1.00
O2       0.39150    0.82680    0.39150   1.00
O2       0.39150    0.89150    0.32680   1.00
C1       0.41500    0.91500    0.52020   1.00
C1       0.41500    1.02020    0.41500   1.00
C1       0.30980    0.91500    0.41500   1.00
C1       0.52020    0.91500    0.41500   1.00
C1       0.41500    0.80980    0.41500   1.00
C1       0.41500    0.91500    0.30980   1.00
O1       0.91500    0.41500    0.41500   1.00
Zn1      0.88220    0.44780    0.44780   1.00
Zn1      0.94780    0.38220    0.44780   1.00
Zn1      0.94780    0.44780    0.38220   1.00
Zn1      0.88220    0.38220    0.38220   1.00
O2       0.89150    0.43850    0.50320   1.00
O2       0.89150    0.50320    0.43850   1.00
O2       0.82680    0.43850    0.43850   1.00
O2       0.93850    0.39150    0.50320   1.00
O2       1.00320    0.39150    0.43850   1.00
O2       0.93850    0.32680    0.43850   1.00
O2       0.93850    0.50320    0.39150   1.00
O2       1.00320    0.43850    0.39150   1.00
O2       0.93850    0.43850    0.32680   1.00
O2       0.82680    0.39150    0.39150   1.00
O2       0.89150    0.32680    0.39150   1.00
O2       0.89150    0.39150    0.32680   1.00
C1       0.91500    0.41500    0.52020   1.00
C1       0.91500    0.52020    0.41500   1.00
C1       0.80980    0.41500    0.41500   1.00
C1       1.02020    0.41500    0.41500   1.00
C1       0.91500    0.30980    0.41500   1.00
C1       0.91500    0.41500    0.30980   1.00
O1       0.41500    0.41500    0.41500   1.00
Zn1      0.44780    0.38220    0.38220   1.00
Zn1      0.38220    0.44780    0.38220   1.00
Zn1      0.38220    0.38220    0.44780   1.00
Zn1      0.44780    0.44780    0.44780   1.00
O2       0.43850    0.39150    0.32680   1.00
O2       0.43850    0.32680    0.39150   1.00
O2       0.50320    0.39150    0.39150   1.00
O2       0.39150    0.43850    0.32680   1.00
O2       0.32680    0.43850    0.39150   1.00
O2       0.39150    0.50320    0.39150   1.00
O2       0.39150    0.32680    0.43850   1.00
O2       0.32680    0.39150    0.43850   1.00
O2       0.39150    0.39150    0.50320   1.00
O2       0.50320    0.43850    0.43850   1.00
O2       0.43850    0.50320    0.43850   1.00
O2       0.43850    0.43850    0.50320   1.00
C1       0.41500    0.41500    0.30980   1.00
C1       0.41500    0.30980    0.41500   1.00
C1       0.52020    0.41500    0.41500   1.00
C1       0.30980    0.41500    0.41500   1.00
C1       0.41500    0.52020    0.41500   1.00
C1       0.41500    0.41500    0.52020   1.00
O1       0.91500    0.91500    0.41500   1.00
Zn1      0.94780    0.88220    0.38220   1.00
Zn1      0.88220    0.94780    0.38220   1.00
Zn1      0.88220    0.88220    0.44780   1.00
Zn1      0.94780    0.94780    0.44780   1.00
O2       0.93850    0.89150    0.32680   1.00
O2       0.93850    0.82680    0.39150   1.00
O2       1.00320    0.89150    0.39150   1.00
O2       0.89150    0.93850    0.32680   1.00
O2       0.82680    0.93850    0.39150   1.00
O2       0.89150    1.00320    0.39150   1.00
O2       0.89150    0.82680    0.43850   1.00
O2       0.82680    0.89150    0.43850   1.00
O2       0.89150    0.89150    0.50320   1.00
O2       1.00320    0.93850    0.43850   1.00
O2       0.93850    1.00320    0.43850   1.00
O2       0.93850    0.93850    0.50320   1.00
C1       0.91500    0.91500    0.30980   1.00
C1       0.91500    0.80980    0.41500   1.00
C1       1.02020    0.91500    0.41500   1.00
C1       0.80980    0.91500    0.41500   1.00
C1       0.91500    1.02020    0.41500   1.00
C1       0.91500    0.91500    0.52020   1.00
O1       0.91500    0.41500    0.91500   1.00
Zn1      0.94780    0.38220    0.88220   1.00
Zn1      0.88220    0.44780    0.88220   1.00
Zn1      0.88220    0.38220    0.94780   1.00
Zn1      0.94780    0.44780    0.94780   1.00
O2       0.93850    0.39150    0.82680   1.00
O2       0.93850    0.32680    0.89150   1.00
O2       1.00320    0.39150    0.89150   1.00
O2       0.89150    0.43850    0.82680   1.00
O2       0.82680    0.43850    0.89150   1.00
O2       0.89150    0.50320    0.89150   1.00
O2       0.89150    0.32680    0.93850   1.00
O2       0.82680    0.39150    0.93850   1.00
O2       0.89150    0.39150    1.00320   1.00
O2       1.00320    0.43850    0.93850   1.00
O2       0.93850    0.50320    0.93850   1.00
O2       0.93850    0.43850    1.00320   1.00
C1       0.91500    0.41500    0.80980   1.00
C1       0.91500    0.30980    0.91500   1.00
C1       1.02020    0.41500    0.91500   1.00
C1       0.80980    0.41500    0.91500   1.00
C1       0.91500    0.52020    0.91500   1.00
C1       0.91500    0.41500    1.02020   1.00
O1       0.41500    0.91500    0.91500   1.00
Zn1      0.44780    0.88220    0.88220   1.00
Zn1      0.38220    0.94780    0.88220   1.00
Zn1      0.38220    0.88220    0.94780   1.00
Zn1      0.44780    0.94780    0.94780   1.00
O2       0.43850    0.89150    0.82680   1.00
O2       0.43850    0.82680    0.89150   1.00
O2       0.50320    0.89150    0.89150   1.00
O2       0.39150    0.93850    0.82680   1.00
O2       0.32680    0.93850    0.89150   1.00
O2       0.39150    1.00320    0.89150   1.00
O2       0.39150    0.82680    0.93850   1.00
O2       0.32680    0.89150    0.93850   1.00
O2       0.39150    0.89150    1.00320   1.00
O2       0.50320    0.93850    0.93850   1.00
O2       0.43850    1.00320    0.93850   1.00
O2       0.43850    0.93850    1.00320   1.00
C1       0.41500    0.91500    0.80980   1.00
C1       0.41500    0.80980    0.91500   1.00
C1       0.52020    0.91500    0.91500   1.00
C1       0.30980    0.91500    0.91500   1.00
C1       0.41500    1.02020    0.91500   1.00
C1       0.41500    0.91500    1.02020   1.00
C4       0.75005    0.75008    0.97915   1.00
C4       0.74995    0.74992    1.02085   1.00
C3       0.74042    0.78351    0.95708   1.00
C3       0.78506    0.75237    1.04225   1.00
C3       0.76005    0.71604    0.95816   1.00
C3a      0.71446    0.74781    1.04263   1.00
C2       0.75010    0.74850    0.89483   1.00
C2       0.75022    0.75145    1.10517   1.00
C3       0.74044    0.78266    0.91566   1.00
C3       0.78513    0.75314    1.08359   1.00
C3       0.75990    0.71523    0.91680   1.00
C3       0.71516    0.74874    1.08415   1.00
H1       0.73282    0.81034    0.97192   1.00
H1       0.81262    0.75399    1.02685   1.00
H1       0.73283    0.80881    0.89968   1.00
H1       0.81266    0.75514    1.09895   1.00
H1       0.76721    0.68842    0.90179   1.00
H1       0.68814    0.74700    1.10043   1.00
C5       0.67540    0.74372    1.02239   1.00
H1       0.76701    0.68961    0.97401   1.00
H2       0.65097    0.74650    1.04354   1.00
H2       0.67183    0.76785    1.00103   1.00
N1       0.67237    0.70583    1.00292   1.00
C6       0.67496    0.67060    1.02012   1.00
C6       0.66610    0.69985    0.96460   1.00
C6       0.67067    0.64173    0.99243   1.00
C6       0.66504    0.66034    0.95711   1.00
H3       0.67994    0.66603    1.05099   1.00
H3       0.66295    0.72278    0.94309   1.00
H3       0.67150    0.61059    0.99741   1.00
H3       0.66070    0.64665    0.92903   1.00
C4       0.75008    0.97915    0.75005   1.00
C4       0.74992    1.02085    0.74995   1.00
C3       0.78351    0.95708    0.74042   1.00
C3       0.75237    1.04225    0.78506   1.00
C3       0.71604    0.95816    0.76005   1.00
C3a      0.74781    1.04263    0.71446   1.00
C2       0.74850    0.89483    0.75010   1.00
C2       0.75145    1.10517    0.75022   1.00
C3       0.78266    0.91566    0.74044   1.00
C3       0.75314    1.08359    0.78513   1.00
C3       0.71523    0.91680    0.75990   1.00
C3       0.74874    1.08415    0.71516   1.00
H1       0.81034    0.97192    0.73282   1.00
H1       0.75399    1.02685    0.81262   1.00
H1       0.80881    0.89968    0.73283   1.00
H1       0.75514    1.09895    0.81266   1.00
H1       0.68842    0.90179    0.76721   1.00
H1       0.74700    1.10043    0.68814   1.00
C5       0.74372    1.02239    0.67540   1.00
H1       0.68961    0.97401    0.76701   1.00
H2       0.74650    1.04354    0.65097   1.00
H2       0.76785    1.00103    0.67183   1.00
N1       0.70583    1.00292    0.67237   1.00
C6       0.67060    1.02012    0.67496   1.00
C6       0.69985    0.96460    0.66610   1.00
C6       0.64173    0.99243    0.67067   1.00
C6       0.66034    0.95711    0.66504   1.00
H3       0.66603    1.05099    0.67994   1.00
H3       0.72278    0.94309    0.66295   1.00
H3       0.61059    0.99741    0.67150   1.00
H3       0.64665    0.92903    0.66070   1.00
C4       0.52085    0.75005    0.74992   1.00
C4       0.47915    0.74995    0.75008   1.00
C3       0.54292    0.74042    0.71649   1.00
C3       0.45775    0.78506    0.74763   1.00
C3       0.54184    0.76005    0.78396   1.00
C3a      0.45737    0.71446    0.75219   1.00
C2       0.60517    0.75010    0.75150   1.00
C2       0.39483    0.75022    0.74855   1.00
C3       0.58434    0.74044    0.71734   1.00
C3       0.41641    0.78513    0.74686   1.00
C3       0.58320    0.75990    0.78477   1.00
C3       0.41585    0.71516    0.75126   1.00
H1       0.52808    0.73282    0.68966   1.00
H1       0.47315    0.81262    0.74601   1.00
H1       0.60032    0.73283    0.69119   1.00
H1       0.40105    0.81266    0.74486   1.00
H1       0.59821    0.76721    0.81158   1.00
H1       0.39957    0.68814    0.75300   1.00
C5       0.47761    0.67540    0.75628   1.00
H1       0.52599    0.76701    0.81039   1.00
H2       0.45646    0.65097    0.75350   1.00
H2       0.49897    0.67183    0.73215   1.00
N1       0.49708    0.67237    0.79417   1.00
C6       0.47988    0.67496    0.82940   1.00
C6       0.53540    0.66610    0.80015   1.00
C6       0.50757    0.67067    0.85827   1.00
C6       0.54289    0.66504    0.83966   1.00
H3       0.44901    0.67994    0.83397   1.00
H3       0.55691    0.66295    0.77722   1.00
H3       0.50259    0.67150    0.88941   1.00
H3       0.57097    0.66070    0.85335   1.00
C4       0.97915    0.75005    0.75008   1.00
C4       1.02085    0.74995    0.74992   1.00
C3       0.95708    0.74042    0.78351   1.00
C3       1.04225    0.78506    0.75237   1.00
C3       0.95816    0.76005    0.71604   1.00
C3a      1.04263    0.71446    0.74781   1.00
C2       0.89483    0.75010    0.74850   1.00
C2       1.10517    0.75022    0.75145   1.00
C3       0.91566    0.74044    0.78266   1.00
C3       1.08359    0.78513    0.75314   1.00
C3       0.91680    0.75990    0.71523   1.00
C3       1.08415    0.71516    0.74874   1.00
H1       0.97192    0.73282    0.81034   1.00
H1       1.02685    0.81262    0.75399   1.00
H1       0.89968    0.73283    0.80881   1.00
H1       1.09895    0.81266    0.75514   1.00
H1       0.90179    0.76721    0.68842   1.00
H1       1.10043    0.68814    0.74700   1.00
C5       1.02239    0.67540    0.74372   1.00
H1       0.97401    0.76701    0.68961   1.00
H2       1.04354    0.65097    0.74650   1.00
H2       1.00103    0.67183    0.76785   1.00
N1       1.00292    0.67237    0.70583   1.00
C6       1.02012    0.67496    0.67060   1.00
C6       0.96460    0.66610    0.69985   1.00
C6       0.99243    0.67067    0.64173   1.00
C6       0.95711    0.66504    0.66034   1.00
H3       1.05099    0.67994    0.66603   1.00
H3       0.94309    0.66295    0.72278   1.00
H3       0.99741    0.67150    0.61059   1.00
H3       0.92903    0.66070    0.64665   1.00
C4       0.74992    0.52085    0.75005   1.00
C4       0.75008    0.47915    0.74995   1.00
C3       0.71649    0.54292    0.74042   1.00
C3       0.74763    0.45775    0.78506   1.00
C3       0.78396    0.54184    0.76005   1.00
C3a      0.75219    0.45737    0.71446   1.00
C2       0.75150    0.60517    0.75010   1.00
C2       0.74855    0.39483    0.75022   1.00
C3       0.71734    0.58434    0.74044   1.00
C3       0.74686    0.41641    0.78513   1.00
C3       0.78477    0.58320    0.75990   1.00
C3       0.75126    0.41585    0.71516   1.00
H1       0.68966    0.52808    0.73282   1.00
H1       0.74601    0.47315    0.81262   1.00
H1       0.69119    0.60032    0.73283   1.00
H1       0.74486    0.40105    0.81266   1.00
H1       0.81158    0.59821    0.76721   1.00
H1       0.75300    0.39957    0.68814   1.00
C5       0.75628    0.47761    0.67540   1.00
H1       0.81039    0.52599    0.76701   1.00
H2       0.75350    0.45646    0.65097   1.00
H2       0.73215    0.49897    0.67183   1.00
N1       0.79417    0.49708    0.67237   1.00
C6       0.82940    0.47988    0.67496   1.00
C6       0.80015    0.53540    0.66610   1.00
C6       0.85827    0.50757    0.67067   1.00
C6       0.83966    0.54289    0.66504   1.00
H3       0.83397    0.44901    0.67994   1.00
H3       0.77722    0.55691    0.66295   1.00
H3       0.88941    0.50259    0.67150   1.00
H3       0.85335    0.57097    0.66070   1.00
C4       0.75005    0.74992    0.52085   1.00
C4       0.74995    0.75008    0.47915   1.00
C3       0.74042    0.71649    0.54292   1.00
C3       0.78506    0.74763    0.45775   1.00
C3       0.76005    0.78396    0.54184   1.00
C3a      0.71446    0.75219    0.45737   1.00
C2       0.75010    0.75150    0.60517   1.00
C2       0.75022    0.74855    0.39483   1.00
C3       0.74044    0.71734    0.58434   1.00
C3       0.78513    0.74686    0.41641   1.00
C3       0.75990    0.78477    0.58320   1.00
C3       0.71516    0.75126    0.41585   1.00
H1       0.73282    0.68966    0.52808   1.00
H1       0.81262    0.74601    0.47315   1.00
H1       0.73283    0.69119    0.60032   1.00
H1       0.81266    0.74486    0.40105   1.00
H1       0.76721    0.81158    0.59821   1.00
H1       0.68814    0.75300    0.39957   1.00
C5       0.67540    0.75628    0.47761   1.00
H1       0.76701    0.81039    0.52599   1.00
H2       0.65097    0.75350    0.45646   1.00
H2       0.67183    0.73215    0.49897   1.00
N1       0.67237    0.79417    0.49708   1.00
C6       0.67496    0.82940    0.47988   1.00
C6       0.66610    0.80015    0.53540   1.00
C6       0.67067    0.85827    0.50757   1.00
C6       0.66504    0.83966    0.54289   1.00
H3       0.67994    0.83397    0.44901   1.00
H3       0.66295    0.77722    0.55691   1.00
H3       0.67150    0.88941    0.50259   1.00
H3       0.66070    0.85335    0.57097   1.00
C4       0.25005    0.25008    0.97915   1.00
C4       0.24995    0.24992    1.02085   1.00
C3       0.24042    0.28351    0.95708   1.00
C3       0.28506    0.25237    1.04225   1.00
C3       0.26005    0.21604    0.95816   1.00
C3a      0.21446    0.24781    1.04263   1.00
C2       0.25010    0.24850    0.89483   1.00
C2       0.25022    0.25145    1.10517   1.00
C3       0.24044    0.28266    0.91566   1.00
C3       0.28513    0.25314    1.08359   1.00
C3       0.25990    0.21523    0.91680   1.00
C3       0.21516    0.24874    1.08415   1.00
H1       0.23282    0.31034    0.97192   1.00
H1       0.31262    0.25399    1.02685   1.00
H1       0.23283    0.30881    0.89968   1.00
H1       0.31266    0.25514    1.09895   1.00
H1       0.26721    0.18842    0.90179   1.00
H1       0.18814    0.24700    1.10043   1.00
C5       0.17540    0.24372    1.02239   1.00
H1       0.26701    0.18961    0.97401   1.00
H2       0.15097    0.24650    1.04354   1.00
H2       0.17183    0.26785    1.00103   1.00
N1       0.17237    0.20583    1.00292   1.00
C6       0.17496    0.17060    1.02012   1.00
C6       0.16610    0.19985    0.96460   1.00
C6       0.17067    0.14173    0.99243   1.00
C6       0.16504    0.16034    0.95711   1.00
H3       0.17994    0.16603    1.05099   1.00
H3       0.16295    0.22278    0.94309   1.00
H3       0.17150    0.11059    0.99741   1.00
H3       0.16070    0.14665    0.92903   1.00
C4       0.25008    0.47915    0.75005   1.00
C4       0.24992    0.52085    0.74995   1.00
C3       0.28351    0.45708    0.74042   1.00
C3       0.25237    0.54225    0.78506   1.00
C3       0.21604    0.45816    0.76005   1.00
C3a      0.24781    0.54263    0.71446   1.00
C2       0.24850    0.39483    0.75010   1.00
C2       0.25145    0.60517    0.75022   1.00
C3       0.28266    0.41566    0.74044   1.00
C3       0.25314    0.58359    0.78513   1.00
C3       0.21523    0.41680    0.75990   1.00
C3       0.24874    0.58415    0.71516   1.00
H1       0.31034    0.47192    0.73282   1.00
H1       0.25399    0.52685    0.81262   1.00
H1       0.30881    0.39968    0.73283   1.00
H1       0.25514    0.59895    0.81266   1.00
H1       0.18842    0.40179    0.76721   1.00
H1       0.24700    0.60043    0.68814   1.00
C5       0.24372    0.52239    0.67540   1.00
H1       0.18961    0.47401    0.76701   1.00
H2       0.24650    0.54354    0.65097   1.00
H2       0.26785    0.50103    0.67183   1.00
N1       0.20583    0.50292    0.67237   1.00
C6       0.17060    0.52012    0.67496   1.00
C6       0.19985    0.46460    0.66610   1.00
C6       0.14173    0.49243    0.67067   1.00
C6       0.16034    0.45711    0.66504   1.00
H3       0.16603    0.55099    0.67994   1.00
H3       0.22278    0.44309    0.66295   1.00
H3       0.11059    0.49741    0.67150   1.00
H3       0.14665    0.42903    0.66070   1.00
C4       0.02085    0.25005    0.74992   1.00
C4       -0.02085   0.24995    0.75008   1.00
C3       0.04292    0.24042    0.71649   1.00
C3       -0.04225   0.28506    0.74763   1.00
C3       0.04184    0.26005    0.78396   1.00
C3a      -0.04263   0.21446    0.75219   1.00
C2       0.10517    0.25010    0.75150   1.00
C2       -0.10517   0.25022    0.74855   1.00
C3       0.08434    0.24044    0.71734   1.00
C3       -0.08359   0.28513    0.74686   1.00
C3       0.08320    0.25990    0.78477   1.00
C3       -0.08415   0.21516    0.75126   1.00
H1       0.02808    0.23282    0.68966   1.00
H1       -0.02685   0.31262    0.74601   1.00
H1       0.10032    0.23283    0.69119   1.00
H1       -0.09895   0.31266    0.74486   1.00
H1       0.09821    0.26721    0.81158   1.00
H1       -0.10043   0.18814    0.75300   1.00
C5       -0.02239   0.17540    0.75628   1.00
H1       0.02599    0.26701    0.81039   1.00
H2       -0.04354   0.15097    0.75350   1.00
H2       -0.00103   0.17183    0.73215   1.00
N1       -0.00292   0.17237    0.79417   1.00
C6       -0.02012   0.17496    0.82940   1.00
C6       0.03540    0.16610    0.80015   1.00
C6       0.00757    0.17067    0.85827   1.00
C6       0.04289    0.16504    0.83966   1.00
H3       -0.05099   0.17994    0.83397   1.00
H3       0.05691    0.16295    0.77722   1.00
H3       0.00259    0.17150    0.88941   1.00
H3       0.07097    0.16070    0.85335   1.00
C4       0.47915    0.25005    0.75008   1.00
C4       0.52085    0.24995    0.74992   1.00
C3       0.45708    0.24042    0.78351   1.00
C3       0.54225    0.28506    0.75237   1.00
C3       0.45816    0.26005    0.71604   1.00
C3a      0.54263    0.21446    0.74781   1.00
C2       0.39483    0.25010    0.74850   1.00
C2       0.60517    0.25022    0.75145   1.00
C3       0.41566    0.24044    0.78266   1.00
C3       0.58359    0.28513    0.75314   1.00
C3       0.41680    0.25990    0.71523   1.00
C3       0.58415    0.21516    0.74874   1.00
H1       0.47192    0.23282    0.81034   1.00
H1       0.52685    0.31262    0.75399   1.00
H1       0.39968    0.23283    0.80881   1.00
H1       0.59895    0.31266    0.75514   1.00
H1       0.40179    0.26721    0.68842   1.00
H1       0.60043    0.18814    0.74700   1.00
C5       0.52239    0.17540    0.74372   1.00
H1       0.47401    0.26701    0.68961   1.00
H2       0.54354    0.15097    0.74650   1.00
H2       0.50103    0.17183    0.76785   1.00
N1       0.50292    0.17237    0.70583   1.00
C6       0.52012    0.17496    0.67060   1.00
C6       0.46460    0.16610    0.69985   1.00
C6       0.49243    0.17067    0.64173   1.00
C6       0.45711    0.16504    0.66034   1.00
H3       0.55099    0.17994    0.66603   1.00
H3       0.44309    0.16295    0.72278   1.00
H3       0.49741    0.17150    0.61059   1.00
H3       0.42903    0.16070    0.64665   1.00
C4       0.24992    0.02085    0.75005   1.00
C4       0.25008    -0.02085   0.74995   1.00
C3       0.21649    0.04292    0.74042   1.00
C3       0.24763    -0.04225   0.78506   1.00
C3       0.28396    0.04184    0.76005   1.00
C3a      0.25219    -0.04263   0.71446   1.00
C2       0.25150    0.10517    0.75010   1.00
C2       0.24855    -0.10517   0.75022   1.00
C3       0.21734    0.08434    0.74044   1.00
C3       0.24686    -0.08359   0.78513   1.00
C3       0.28477    0.08320    0.75990   1.00
C3       0.25126    -0.08415   0.71516   1.00
H1       0.18966    0.02808    0.73282   1.00
H1       0.24601    -0.02685   0.81262   1.00
H1       0.19119    0.10032    0.73283   1.00
H1       0.24486    -0.09895   0.81266   1.00
H1       0.31158    0.09821    0.76721   1.00
H1       0.25300    -0.10043   0.68814   1.00
C5       0.25628    -0.02239   0.67540   1.00
H1       0.31039    0.02599    0.76701   1.00
H2       0.25350    -0.04354   0.65097   1.00
H2       0.23215    -0.00103   0.67183   1.00
N1       0.29417    -0.00292   0.67237   1.00
C6       0.32940    -0.02012   0.67496   1.00
C6       0.30015    0.03540    0.66610   1.00
C6       0.35827    0.00757    0.67067   1.00
C6       0.33966    0.04289    0.66504   1.00
H3       0.33397    -0.05099   0.67994   1.00
H3       0.27722    0.05691    0.66295   1.00
H3       0.38941    0.00259    0.67150   1.00
H3       0.35335    0.07097    0.66070   1.00
C4       0.25005    0.24992    0.52085   1.00
C4       0.24995    0.25008    0.47915   1.00
C3       0.24042    0.21649    0.54292   1.00
C3       0.28506    0.24763    0.45775   1.00
C3       0.26005    0.28396    0.54184   1.00
C3a      0.21446    0.25219    0.45737   1.00
C2       0.25010    0.25150    0.60517   1.00
C2       0.25022    0.24855    0.39483   1.00
C3       0.24044    0.21734    0.58434   1.00
C3       0.28513    0.24686    0.41641   1.00
C3       0.25990    0.28477    0.58320   1.00
C3       0.21516    0.25126    0.41585   1.00
H1       0.23282    0.18966    0.52808   1.00
H1       0.31262    0.24601    0.47315   1.00
H1       0.23283    0.19119    0.60032   1.00
H1       0.31266    0.24486    0.40105   1.00
H1       0.26721    0.31158    0.59821   1.00
H1       0.18814    0.25300    0.39957   1.00
C5       0.17540    0.25628    0.47761   1.00
H1       0.26701    0.31039    0.52599   1.00
H2       0.15097    0.25350    0.45646   1.00
H2       0.17183    0.23215    0.49897   1.00
N1       0.17237    0.29417    0.49708   1.00
C6       0.17496    0.32940    0.47988   1.00
C6       0.16610    0.30015    0.53540   1.00
C6       0.17067    0.35827    0.50757   1.00
C6       0.16504    0.33966    0.54289   1.00
H3       0.17994    0.33397    0.44901   1.00
H3       0.16295    0.27722    0.55691   1.00
H3       0.17150    0.38941    0.50259   1.00
H3       0.16070    0.35335    0.57097   1.00
C4       0.25005    0.75008    0.47915   1.00
C4       0.24995    0.74992    0.52085   1.00
C3       0.24042    0.78351    0.45708   1.00
C3       0.28506    0.75237    0.54225   1.00
C3       0.26005    0.71604    0.45816   1.00
C3a      0.21446    0.74781    0.54263   1.00
C2       0.25010    0.74850    0.39483   1.00
C2       0.25022    0.75145    0.60517   1.00
C3       0.24044    0.78266    0.41566   1.00
C3       0.28513    0.75314    0.58359   1.00
C3       0.25990    0.71523    0.41680   1.00
C3       0.21516    0.74874    0.58415   1.00
H1       0.23282    0.81034    0.47192   1.00
H1       0.31262    0.75399    0.52685   1.00
H1       0.23283    0.80881    0.39968   1.00
H1       0.31266    0.75514    0.59895   1.00
H1       0.26721    0.68842    0.40179   1.00
H1       0.18814    0.74700    0.60043   1.00
C5       0.17540    0.74372    0.52239   1.00
H1       0.26701    0.68961    0.47401   1.00
H2       0.15097    0.74650    0.54354   1.00
H2       0.17183    0.76785    0.50103   1.00
N1       0.17237    0.70583    0.50292   1.00
C6       0.17496    0.67060    0.52012   1.00
C6       0.16610    0.69985    0.46460   1.00
C6       0.17067    0.64173    0.49243   1.00
C6       0.16504    0.66034    0.45711   1.00
H3       0.17994    0.66603    0.55099   1.00
H3       0.16295    0.72278    0.44309   1.00
H3       0.17150    0.61059    0.49741   1.00
H3       0.16070    0.64665    0.42903   1.00
C4       0.25008    0.97915    0.25005   1.00
C4       0.24992    1.02085    0.24995   1.00
C3       0.28351    0.95708    0.24042   1.00
C3       0.25237    1.04225    0.28506   1.00
C3       0.21604    0.95816    0.26005   1.00
C3a      0.24781    1.04263    0.21446   1.00
C2       0.24850    0.89483    0.25010   1.00
C2       0.25145    1.10517    0.25022   1.00
C3       0.28266    0.91566    0.24044   1.00
C3       0.25314    1.08359    0.28513   1.00
C3       0.21523    0.91680    0.25990   1.00
C3       0.24874    1.08415    0.21516   1.00
H1       0.31034    0.97192    0.23282   1.00
H1       0.25399    1.02685    0.31262   1.00
H1       0.30881    0.89968    0.23283   1.00
H1       0.25514    1.09895    0.31266   1.00
H1       0.18842    0.90179    0.26721   1.00
H1       0.24700    1.10043    0.18814   1.00
C5       0.24372    1.02239    0.17540   1.00
H1       0.18961    0.97401    0.26701   1.00
H2       0.24650    1.04354    0.15097   1.00
H2       0.26785    1.00103    0.17183   1.00
N1       0.20583    1.00292    0.17237   1.00
C6       0.17060    1.02012    0.17496   1.00
C6       0.19985    0.96460    0.16610   1.00
C6       0.14173    0.99243    0.17067   1.00
C6       0.16034    0.95711    0.16504   1.00
H3       0.16603    1.05099    0.17994   1.00
H3       0.22278    0.94309    0.16295   1.00
H3       0.11059    0.99741    0.17150   1.00
H3       0.14665    0.92903    0.16070   1.00
C4       0.02085    0.75005    0.24992   1.00
C4       -0.02085   0.74995    0.25008   1.00
C3       0.04292    0.74042    0.21649   1.00
C3       -0.04225   0.78506    0.24763   1.00
C3       0.04184    0.76005    0.28396   1.00
C3a      -0.04263   0.71446    0.25219   1.00
C2       0.10517    0.75010    0.25150   1.00
C2       -0.10517   0.75022    0.24855   1.00
C3       0.08434    0.74044    0.21734   1.00
C3       -0.08359   0.78513    0.24686   1.00
C3       0.08320    0.75990    0.28477   1.00
C3       -0.08415   0.71516    0.25126   1.00
H1       0.02808    0.73282    0.18966   1.00
H1       -0.02685   0.81262    0.24601   1.00
H1       0.10032    0.73283    0.19119   1.00
H1       -0.09895   0.81266    0.24486   1.00
H1       0.09821    0.76721    0.31158   1.00
H1       -0.10043   0.68814    0.25300   1.00
C5       -0.02239   0.67540    0.25628   1.00
H1       0.02599    0.76701    0.31039   1.00
H2       -0.04354   0.65097    0.25350   1.00
H2       -0.00103   0.67183    0.23215   1.00
N1       -0.00292   0.67237    0.29417   1.00
C6       -0.02012   0.67496    0.32940   1.00
C6       0.03540    0.66610    0.30015   1.00
C6       0.00757    0.67067    0.35827   1.00
C6       0.04289    0.66504    0.33966   1.00
H3       -0.05099   0.67994    0.33397   1.00
H3       0.05691    0.66295    0.27722   1.00
H3       0.00259    0.67150    0.38941   1.00
H3       0.07097    0.66070    0.35335   1.00
C4       0.47915    0.75005    0.25008   1.00
C4       0.52085    0.74995    0.24992   1.00
C3       0.45708    0.74042    0.28351   1.00
C3       0.54225    0.78506    0.25237   1.00
C3       0.45816    0.76005    0.21604   1.00
C3a      0.54263    0.71446    0.24781   1.00
C2       0.39483    0.75010    0.24850   1.00
C2       0.60517    0.75022    0.25145   1.00
C3       0.41566    0.74044    0.28266   1.00
C3       0.58359    0.78513    0.25314   1.00
C3       0.41680    0.75990    0.21523   1.00
C3       0.58415    0.71516    0.24874   1.00
H1       0.47192    0.73282    0.31034   1.00
H1       0.52685    0.81262    0.25399   1.00
H1       0.39968    0.73283    0.30881   1.00
H1       0.59895    0.81266    0.25514   1.00
H1       0.40179    0.76721    0.18842   1.00
H1       0.60043    0.68814    0.24700   1.00
C5       0.52239    0.67540    0.24372   1.00
H1       0.47401    0.76701    0.18961   1.00
H2       0.54354    0.65097    0.24650   1.00
H2       0.50103    0.67183    0.26785   1.00
N1       0.50292    0.67237    0.20583   1.00
C6       0.52012    0.67496    0.17060   1.00
C6       0.46460    0.66610    0.19985   1.00
C6       0.49243    0.67067    0.14173   1.00
C6       0.45711    0.66504    0.16034   1.00
H3       0.55099    0.67994    0.16603   1.00
H3       0.44309    0.66295    0.22278   1.00
H3       0.49741    0.67150    0.11059   1.00
H3       0.42903    0.66070    0.14665   1.00
C4       0.24992    0.52085    0.25005   1.00
C4       0.25008    0.47915    0.24995   1.00
C3       0.21649    0.54292    0.24042   1.00
C3       0.24763    0.45775    0.28506   1.00
C3       0.28396    0.54184    0.26005   1.00
C3a      0.25219    0.45737    0.21446   1.00
C2       0.25150    0.60517    0.25010   1.00
C2       0.24855    0.39483    0.25022   1.00
C3       0.21734    0.58434    0.24044   1.00
C3       0.24686    0.41641    0.28513   1.00
C3       0.28477    0.58320    0.25990   1.00
C3       0.25126    0.41585    0.21516   1.00
H1       0.18966    0.52808    0.23282   1.00
H1       0.24601    0.47315    0.31262   1.00
H1       0.19119    0.60032    0.23283   1.00
H1       0.24486    0.40105    0.31266   1.00
H1       0.31158    0.59821    0.26721   1.00
H1       0.25300    0.39957    0.18814   1.00
C5       0.25628    0.47761    0.17540   1.00
H1       0.31039    0.52599    0.26701   1.00
H2       0.25350    0.45646    0.15097   1.00
H2       0.23215    0.49897    0.17183   1.00
N1       0.29417    0.49708    0.17237   1.00
C6       0.32940    0.47988    0.17496   1.00
C6       0.30015    0.53540    0.16610   1.00
C6       0.35827    0.50757    0.17067   1.00
C6       0.33966    0.54289    0.16504   1.00
H3       0.33397    0.44901    0.17994   1.00
H3       0.27722    0.55691    0.16295   1.00
H3       0.38941    0.50259    0.17150   1.00
H3       0.35335    0.57097    0.16070   1.00
C4       0.25005    0.74992    0.02085   1.00
C4       0.24995    0.75008    -0.02085   1.00
C3       0.24042    0.71649    0.04292   1.00
C3       0.28506    0.74763    -0.04225   1.00
C3       0.26005    0.78396    0.04184   1.00
C3a      0.21446    0.75219    -0.04263   1.00
C2       0.25010    0.75150    0.10517   1.00
C2       0.25022    0.74855    -0.10517   1.00
C3       0.24044    0.71734    0.08434   1.00
C3       0.28513    0.74686    -0.08359   1.00
C3       0.25990    0.78477    0.08320   1.00
C3       0.21516    0.75126    -0.08415   1.00
H1       0.23282    0.68966    0.02808   1.00
H1       0.31262    0.74601    -0.02685   1.00
H1       0.23283    0.69119    0.10032   1.00
H1       0.31266    0.74486    -0.09895   1.00
H1       0.26721    0.81158    0.09821   1.00
H1       0.18814    0.75300    -0.10043   1.00
C5       0.17540    0.75628    -0.02239   1.00
H1       0.26701    0.81039    0.02599   1.00
H2       0.15097    0.75350    -0.04354   1.00
H2       0.17183    0.73215    -0.00103   1.00
N1       0.17237    0.79417    -0.00292   1.00
C6       0.17496    0.82940    -0.02012   1.00
C6       0.16610    0.80015    0.03540   1.00
C6       0.17067    0.85827    0.00757   1.00
C6       0.16504    0.83966    0.04289   1.00
H3       0.17994    0.83397    -0.05099   1.00
H3       0.16295    0.77722    0.05691   1.00
H3       0.17150    0.88941    0.00259   1.00
H3       0.16070    0.85335    0.07097   1.00
C4       0.75005    0.25008    0.47915   1.00
C4       0.74995    0.24992    0.52085   1.00
C3       0.74042    0.28351    0.45708   1.00
C3       0.78506    0.25237    0.54225   1.00
C3       0.76005    0.21604    0.45816   1.00
C3a      0.71446    0.24781    0.54263   1.00
C2       0.75010    0.24850    0.39483   1.00
C2       0.75022    0.25145    0.60517   1.00
C3       0.74044    0.28266    0.41566   1.00
C3       0.78513    0.25314    0.58359   1.00
C3       0.75990    0.21523    0.41680   1.00
C3       0.71516    0.24874    0.58415   1.00
H1       0.73282    0.31034    0.47192   1.00
H1       0.81262    0.25399    0.52685   1.00
H1       0.73283    0.30881    0.39968   1.00
H1       0.81266    0.25514    0.59895   1.00
H1       0.76721    0.18842    0.40179   1.00
H1       0.68814    0.24700    0.60043   1.00
C5       0.67540    0.24372    0.52239   1.00
H1       0.76701    0.18961    0.47401   1.00
H2       0.65097    0.24650    0.54354   1.00
H2       0.67183    0.26785    0.50103   1.00
N1       0.67237    0.20583    0.50292   1.00
C6       0.67496    0.17060    0.52012   1.00
C6       0.66610    0.19985    0.46460   1.00
C6       0.67067    0.14173    0.49243   1.00
C6       0.66504    0.16034    0.45711   1.00
H3       0.67994    0.16603    0.55099   1.00
H3       0.66295    0.22278    0.44309   1.00
H3       0.67150    0.11059    0.49741   1.00
H3       0.66070    0.14665    0.42903   1.00
C4       0.75008    0.47915    0.25005   1.00
C4       0.74992    0.52085    0.24995   1.00
C3       0.78351    0.45708    0.24042   1.00
C3       0.75237    0.54225    0.28506   1.00
C3       0.71604    0.45816    0.26005   1.00
C3a      0.74781    0.54263    0.21446   1.00
C2       0.74850    0.39483    0.25010   1.00
C2       0.75145    0.60517    0.25022   1.00
C3       0.78266    0.41566    0.24044   1.00
C3       0.75314    0.58359    0.28513   1.00
C3       0.71523    0.41680    0.25990   1.00
C3       0.74874    0.58415    0.21516   1.00
H1       0.81034    0.47192    0.23282   1.00
H1       0.75399    0.52685    0.31262   1.00
H1       0.80881    0.39968    0.23283   1.00
H1       0.75514    0.59895    0.31266   1.00
H1       0.68842    0.40179    0.26721   1.00
H1       0.74700    0.60043    0.18814   1.00
C5       0.74372    0.52239    0.17540   1.00
H1       0.68961    0.47401    0.26701   1.00
H2       0.74650    0.54354    0.15097   1.00
H2       0.76785    0.50103    0.17183   1.00
N1       0.70583    0.50292    0.17237   1.00
C6       0.67060    0.52012    0.17496   1.00
C6       0.69985    0.46460    0.16610   1.00
C6       0.64173    0.49243    0.17067   1.00
C6       0.66034    0.45711    0.16504   1.00
H3       0.66603    0.55099    0.17994   1.00
H3       0.72278    0.44309    0.16295   1.00
H3       0.61059    0.49741    0.17150   1.00
H3       0.64665    0.42903    0.16070   1.00
C4       0.52085    0.25005    0.24992   1.00
C4       0.47915    0.24995    0.25008   1.00
C3       0.54292    0.24042    0.21649   1.00
C3       0.45775    0.28506    0.24763   1.00
C3       0.54184    0.26005    0.28396   1.00
C3a      0.45737    0.21446    0.25219   1.00
C2       0.60517    0.25010    0.25150   1.00
C2       0.39483    0.25022    0.24855   1.00
C3       0.58434    0.24044    0.21734   1.00
C3       0.41641    0.28513    0.24686   1.00
C3       0.58320    0.25990    0.28477   1.00
C3       0.41585    0.21516    0.25126   1.00
H1       0.52808    0.23282    0.18966   1.00
H1       0.47315    0.31262    0.24601   1.00
H1       0.60032    0.23283    0.19119   1.00
H1       0.40105    0.31266    0.24486   1.00
H1       0.59821    0.26721    0.31158   1.00
H1       0.39957    0.18814    0.25300   1.00
C5       0.47761    0.17540    0.25628   1.00
H1       0.52599    0.26701    0.31039   1.00
H2       0.45646    0.15097    0.25350   1.00
H2       0.49897    0.17183    0.23215   1.00
N1       0.49708    0.17237    0.29417   1.00
C6       0.47988    0.17496    0.32940   1.00
C6       0.53540    0.16610    0.30015   1.00
C6       0.50757    0.17067    0.35827   1.00
C6       0.54289    0.16504    0.33966   1.00
H3       0.44901    0.17994    0.33397   1.00
H3       0.55691    0.16295    0.27722   1.00
H3       0.50259    0.17150    0.38941   1.00
H3       0.57097    0.16070    0.35335   1.00
C4       0.97915    0.25005    0.25008   1.00
C4       1.02085    0.24995    0.24992   1.00
C3       0.95708    0.24042    0.28351   1.00
C3       1.04225    0.28506    0.25237   1.00
C3       0.95816    0.26005    0.21604   1.00
C3a      1.04263    0.21446    0.24781   1.00
C2       0.89483    0.25010    0.24850   1.00
C2       1.10517    0.25022    0.25145   1.00
C3       0.91566    0.24044    0.28266   1.00
C3       1.08359    0.28513    0.25314   1.00
C3       0.91680    0.25990    0.21523   1.00
C3       1.08415    0.21516    0.24874   1.00
H1       0.97192    0.23282    0.31034   1.00
H1       1.02685    0.31262    0.25399   1.00
H1       0.89968    0.23283    0.30881   1.00
H1       1.09895    0.31266    0.25514   1.00
H1       0.90179    0.26721    0.18842   1.00
H1       1.10043    0.18814    0.24700   1.00
C5       1.02239    0.17540    0.24372   1.00
H1       0.97401    0.26701    0.18961   1.00
H2       1.04354    0.15097    0.24650   1.00
H2       1.00103    0.17183    0.26785   1.00
N1       1.00292    0.17237    0.20583   1.00
C6       1.02012    0.17496    0.17060   1.00
C6       0.96460    0.16610    0.19985   1.00
C6       0.99243    0.17067    0.14173   1.00
C6       0.95711    0.16504    0.16034   1.00
H3       1.05099    0.17994    0.16603   1.00
H3       0.94309    0.16295    0.22278   1.00
H3       0.99741    0.17150    0.11059   1.00
H3       0.92903    0.16070    0.14665   1.00
C4       0.74992    0.02085    0.25005   1.00
C4       0.75008    -0.02085   0.24995   1.00
C3       0.71649    0.04292    0.24042   1.00
C3       0.74763    -0.04225   0.28506   1.00
C3       0.78396    0.04184    0.26005   1.00
C3a      0.75219    -0.04263   0.21446   1.00
C2       0.75150    0.10517    0.25010   1.00
C2       0.74855    -0.10517   0.25022   1.00
C3       0.71734    0.08434    0.24044   1.00
C3       0.74686    -0.08359   0.28513   1.00
C3       0.78477    0.08320    0.25990   1.00
C3       0.75126    -0.08415   0.21516   1.00
H1       0.68966    0.02808    0.23282   1.00
H1       0.74601    -0.02685   0.31262   1.00
H1       0.69119    0.10032    0.23283   1.00
H1       0.74486    -0.09895   0.31266   1.00
H1       0.81158    0.09821    0.26721   1.00
H1       0.75300    -0.10043   0.18814   1.00
C5       0.75628    -0.02239   0.17540   1.00
H1       0.81039    0.02599    0.26701   1.00
H2       0.75350    -0.04354   0.15097   1.00
H2       0.73215    -0.00103   0.17183   1.00
N1       0.79417    -0.00292   0.17237   1.00
C6       0.82940    -0.02012   0.17496   1.00
C6       0.80015    0.03540    0.16610   1.00
C6       0.85827    0.00757    0.17067   1.00
C6       0.83966    0.04289    0.16504   1.00
H3       0.83397    -0.05099   0.17994   1.00
H3       0.77722    0.05691    0.16295   1.00
H3       0.88941    0.00259    0.17150   1.00
H3       0.85335    0.07097    0.16070   1.00
C4       0.75005    0.24992    0.02085   1.00
C4       0.74995    0.25008    -0.02085   1.00
C3       0.74042    0.21649    0.04292   1.00
C3       0.78506    0.24763    -0.04225   1.00
C3       0.76005    0.28396    0.04184   1.00
C3a      0.71446    0.25219    -0.04263   1.00
C2       0.75010    0.25150    0.10517   1.00
C2       0.75022    0.24855    -0.10517   1.00
C3       0.74044    0.21734    0.08434   1.00
C3       0.78513    0.24686    -0.08359   1.00
C3       0.75990    0.28477    0.08320   1.00
C3       0.71516    0.25126    -0.08415   1.00
H1       0.73282    0.18966    0.02808   1.00
H1       0.81262    0.24601    -0.02685   1.00
H1       0.73283    0.19119    0.10032   1.00
H1       0.81266    0.24486    -0.09895   1.00
H1       0.76721    0.31158    0.09821   1.00
H1       0.68814    0.25300    -0.10043   1.00
C5       0.67540    0.25628    -0.02239   1.00
H1       0.76701    0.31039    0.02599   1.00
H2       0.65097    0.25350    -0.04354   1.00
H2       0.67183    0.23215    -0.00103   1.00
N1       0.67237    0.29417    -0.00292   1.00
C6       0.67496    0.32940    -0.02012   1.00
C6       0.66610    0.30015    0.03540   1.00
C6       0.67067    0.35827    0.00757   1.00
C6       0.66504    0.33966    0.04289   1.00
H3       0.67994    0.33397    -0.05099   1.00
H3       0.66295    0.27722    0.05691   1.00
H3       0.67150    0.38941    0.00259   1.00
H3       0.66070    0.35335    0.07097   1.00
C4       0.91505    0.91508    1.14415   1.00
C4       0.91495    0.91492    1.18585   1.00
C3       0.90542    0.94851    1.12208   1.00
C3       0.95006    0.91737    1.20725   1.00
C3       0.92505    0.88104    1.12316   1.00
C3a      0.87946    0.91281    1.20763   1.00
C2       0.91510    0.91350    1.05983   1.00
C2       0.91522    0.91645    1.27017   1.00
C3       0.90544    0.94766    1.08066   1.00
C3       0.95013    0.91814    1.24859   1.00
C3       0.92490    0.88023    1.08180   1.00
C3       0.88016    0.91374    1.24915   1.00
H1       0.89782    0.97534    1.13692   1.00
H1       0.97762    0.91899    1.19185   1.00
H1       0.89783    0.97381    1.06468   1.00
H1       0.97766    0.92014    1.26395   1.00
H1       0.93221    0.85342    1.06679   1.00
H1       0.85314    0.91200    1.26543   1.00
C5       0.84040    0.90872    1.18739   1.00
H1       0.93201    0.85461    1.13901   1.00
H2       0.81597    0.91150    1.20854   1.00
H2       0.83683    0.93285    1.16603   1.00
N1       0.83737    0.87083    1.16792   1.00
C6       0.83996    0.83560    1.18512   1.00
C6       0.83110    0.86485    1.12960   1.00
C6       0.83567    0.80673    1.15743   1.00
C6       0.83004    0.82534    1.12211   1.00
H3       0.84494    0.83103    1.21599   1.00
H3       0.82795    0.88778    1.10809   1.00
H3       0.83650    0.77559    1.16241   1.00
H3       0.82570    0.81165    1.09403   1.00
C4       0.91508    1.14415    0.91505   1.00
C4       0.91492    1.18585    0.91495   1.00
C3       0.94851    1.12208    0.90542   1.00
C3       0.91737    1.20725    0.95006   1.00
C3       0.88104    1.12316    0.92505   1.00
C3a      0.91281    1.20763    0.87946   1.00
C2       0.91350    1.05983    0.91510   1.00
C2       0.91645    1.27017    0.91522   1.00
C3       0.94766    1.08066    0.90544   1.00
C3       0.91814    1.24859    0.95013   1.00
C3       0.88023    1.08180    0.92490   1.00
C3       0.91374    1.24915    0.88016   1.00
H1       0.97534    1.13692    0.89782   1.00
H1       0.91899    1.19185    0.97762   1.00
H1       0.97381    1.06468    0.89783   1.00
H1       0.92014    1.26395    0.97766   1.00
H1       0.85342    1.06679    0.93221   1.00
H1       0.91200    1.26543    0.85314   1.00
C5       0.90872    1.18739    0.84040   1.00
H1       0.85461    1.13901    0.93201   1.00
H2       0.91150    1.20854    0.81597   1.00
H2       0.93285    1.16603    0.83683   1.00
N1       0.87083    1.16792    0.83737   1.00
C6       0.83560    1.18512    0.83996   1.00
C6       0.86485    1.12960    0.83110   1.00
C6       0.80673    1.15743    0.83567   1.00
C6       0.82534    1.12211    0.83004   1.00
H3       0.83103    1.21599    0.84494   1.00
H3       0.88778    1.10809    0.82795   1.00
H3       0.77559    1.16241    0.83650   1.00
H3       0.81165    1.09403    0.82570   1.00
C4       0.68585    0.91505    0.91492   1.00
C4       0.64415    0.91495    0.91508   1.00
C3       0.70792    0.90542    0.88149   1.00
C3       0.62275    0.95006    0.91263   1.00
C3       0.70684    0.92505    0.94896   1.00
C3a      0.62237    0.87946    0.91719   1.00
C2       0.77017    0.91510    0.91650   1.00
C2       0.55983    0.91522    0.91355   1.00
C3       0.74934    0.90544    0.88234   1.00
C3       0.58141    0.95013    0.91186   1.00
C3       0.74820    0.92490    0.94977   1.00
C3       0.58085    0.88016    0.91626   1.00
H1       0.69308    0.89782    0.85466   1.00
H1       0.63815    0.97762    0.91101   1.00
H1       0.76532    0.89783    0.85619   1.00
H1       0.56605    0.97766    0.90986   1.00
H1       0.76321    0.93221    0.97658   1.00
H1       0.56457    0.85314    0.91800   1.00
C5       0.64261    0.84040    0.92128   1.00
H1       0.69099    0.93201    0.97539   1.00
H2       0.62146    0.81597    0.91850   1.00
H2       0.66397    0.83683    0.89715   1.00
N1       0.66208    0.83737    0.95917   1.00
C6       0.64488    0.83996    0.99440   1.00
C6       0.70040    0.83110    0.96515   1.00
C6       0.67257    0.83567    1.02327   1.00
C6       0.70789    0.83004    1.00466   1.00
H3       0.61401    0.84494    0.99897   1.00
H3       0.72191    0.82795    0.94222   1.00
H3       0.66759    0.83650    1.05441   1.00
H3       0.73597    0.82570    1.01835   1.00
C4       1.14415    0.91505    0.91508   1.00
C4       1.18585    0.91495    0.91492   1.00
C3       1.12208    0.90542    0.94851   1.00
C3       1.20725    0.95006    0.91737   1.00
C3       1.12316    0.92505    0.88104   1.00
C3a      1.20763    0.87946    0.91281   1.00
C2       1.05983    0.91510    0.91350   1.00
C2       1.27017    0.91522    0.91645   1.00
C3       1.08066    0.90544    0.94766   1.00
C3       1.24859    0.95013    0.91814   1.00
C3       1.08180    0.92490    0.88023   1.00
C3       1.24915    0.88016    0.91374   1.00
H1       1.13692    0.89782    0.97534   1.00
H1       1.19185    0.97762    0.91899   1.00
H1       1.06468    0.89783    0.97381   1.00
H1       1.26395    0.97766    0.92014   1.00
H1       1.06679    0.93221    0.85342   1.00
H1       1.26543    0.85314    0.91200   1.00
C5       1.18739    0.84040    0.90872   1.00
H1       1.13901    0.93201    0.85461   1.00
H2       1.20854    0.81597    0.91150   1.00
H2       1.16603    0.83683    0.93285   1.00
N1       1.16792    0.83737    0.87083   1.00
C6       1.18512    0.83996    0.83560   1.00
C6       1.12960    0.83110    0.86485   1.00
C6       1.15743    0.83567    0.80673   1.00
C6       1.12211    0.83004    0.82534   1.00
H3       1.21599    0.84494    0.83103   1.00
H3       1.10809    0.82795    0.88778   1.00
H3       1.16241    0.83650    0.77559   1.00
H3       1.09403    0.82570    0.81165   1.00
C4       0.91492    0.68585    0.91505   1.00
C4       0.91508    0.64415    0.91495   1.00
C3       0.88149    0.70792    0.90542   1.00
C3       0.91263    0.62275    0.95006   1.00
C3       0.94896    0.70684    0.92505   1.00
C3a      0.91719    0.62237    0.87946   1.00
C2       0.91650    0.77017    0.91510   1.00
C2       0.91355    0.55983    0.91522   1.00
C3       0.88234    0.74934    0.90544   1.00
C3       0.91186    0.58141    0.95013   1.00
C3       0.94977    0.74820    0.92490   1.00
C3       0.91626    0.58085    0.88016   1.00
H1       0.85466    0.69308    0.89782   1.00
H1       0.91101    0.63815    0.97762   1.00
H1       0.85619    0.76532    0.89783   1.00
H1       0.90986    0.56605    0.97766   1.00
H1       0.97658    0.76321    0.93221   1.00
H1       0.91800    0.56457    0.85314   1.00
C5       0.92128    0.64261    0.84040   1.00
H1       0.97539    0.69099    0.93201   1.00
H2       0.91850    0.62146    0.81597   1.00
H2       0.89715    0.66397    0.83683   1.00
N1       0.95917    0.66208    0.83737   1.00
C6       0.99440    0.64488    0.83996   1.00
C6       0.96515    0.70040    0.83110   1.00
C6       1.02327    0.67257    0.83567   1.00
C6       1.00466    0.70789    0.83004   1.00
H3       0.99897    0.61401    0.84494   1.00
H3       0.94222    0.72191    0.82795   1.00
H3       1.05441    0.66759    0.83650   1.00
H3       1.01835    0.73597    0.82570   1.00
C4       0.91505    0.91492    0.68585   1.00
C4       0.91495    0.91508    0.64415   1.00
C3       0.90542    0.88149    0.70792   1.00
C3       0.95006    0.91263    0.62275   1.00
C3       0.92505    0.94896    0.70684   1.00
C3a      0.87946    0.91719    0.62237   1.00
C2       0.91510    0.91650    0.77017   1.00
C2       0.91522    0.91355    0.55983   1.00
C3       0.90544    0.88234    0.74934   1.00
C3       0.95013    0.91186    0.58141   1.00
C3       0.92490    0.94977    0.74820   1.00
C3       0.88016    0.91626    0.58085   1.00
H1       0.89782    0.85466    0.69308   1.00
H1       0.97762    0.91101    0.63815   1.00
H1       0.89783    0.85619    0.76532   1.00
H1       0.97766    0.90986    0.56605   1.00
H1       0.93221    0.97658    0.76321   1.00
H1       0.85314    0.91800    0.56457   1.00
C5       0.84040    0.92128    0.64261   1.00
H1       0.93201    0.97539    0.69099   1.00
H2       0.81597    0.91850    0.62146   1.00
H2       0.83683    0.89715    0.66397   1.00
N1       0.83737    0.95917    0.66208   1.00
C6       0.83996    0.99440    0.64488   1.00
C6       0.83110    0.96515    0.70040   1.00
C6       0.83567    1.02327    0.67257   1.00
C6       0.83004    1.00466    0.70789   1.00
H3       0.84494    0.99897    0.61401   1.00
H3       0.82795    0.94222    0.72191   1.00
H3       0.83650    1.05441    0.66759   1.00
H3       0.82570    1.01835    0.73597   1.00
C4       0.41505    0.41508    1.14415   1.00
C4       0.41495    0.41492    1.18585   1.00
C3       0.40542    0.44851    1.12208   1.00
C3       0.45006    0.41737    1.20725   1.00
C3       0.42505    0.38104    1.12316   1.00
C3a      0.37946    0.41281    1.20763   1.00
C2       0.41510    0.41350    1.05983   1.00
C2       0.41522    0.41645    1.27017   1.00
C3       0.40544    0.44766    1.08066   1.00
C3       0.45013    0.41814    1.24859   1.00
C3       0.42490    0.38023    1.08180   1.00
C3       0.38016    0.41374    1.24915   1.00
H1       0.39782    0.47534    1.13692   1.00
H1       0.47762    0.41899    1.19185   1.00
H1       0.39783    0.47381    1.06468   1.00
H1       0.47766    0.42014    1.26395   1.00
H1       0.43221    0.35342    1.06679   1.00
H1       0.35314    0.41200    1.26543   1.00
C5       0.34040    0.40872    1.18739   1.00
H1       0.43201    0.35461    1.13901   1.00
H2       0.31597    0.41150    1.20854   1.00
H2       0.33683    0.43285    1.16603   1.00
N1       0.33737    0.37083    1.16792   1.00
C6       0.33996    0.33560    1.18512   1.00
C6       0.33110    0.36485    1.12960   1.00
C6       0.33567    0.30673    1.15743   1.00
C6       0.33004    0.32534    1.12211   1.00
H3       0.34494    0.33103    1.21599   1.00
H3       0.32795    0.38778    1.10809   1.00
H3       0.33650    0.27559    1.16241   1.00
H3       0.32570    0.31165    1.09403   1.00
C4       0.41508    0.64415    0.91505   1.00
C4       0.41492    0.68585    0.91495   1.00
C3       0.44851    0.62208    0.90542   1.00
C3       0.41737    0.70725    0.95006   1.00
C3       0.38104    0.62316    0.92505   1.00
C3a      0.41281    0.70763    0.87946   1.00
C2       0.41350    0.55983    0.91510   1.00
C2       0.41645    0.77017    0.91522   1.00
C3       0.44766    0.58066    0.90544   1.00
C3       0.41814    0.74859    0.95013   1.00
C3       0.38023    0.58180    0.92490   1.00
C3       0.41374    0.74915    0.88016   1.00
H1       0.47534    0.63692    0.89782   1.00
H1       0.41899    0.69185    0.97762   1.00
H1       0.47381    0.56468    0.89783   1.00
H1       0.42014    0.76395    0.97766   1.00
H1       0.35342    0.56679    0.93221   1.00
H1       0.41200    0.76543    0.85314   1.00
C5       0.40872    0.68739    0.84040   1.00
H1       0.35461    0.63901    0.93201   1.00
H2       0.41150    0.70854    0.81597   1.00
H2       0.43285    0.66603    0.83683   1.00
N1       0.37083    0.66792    0.83737   1.00
C6       0.33560    0.68512    0.83996   1.00
C6       0.36485    0.62960    0.83110   1.00
C6       0.30673    0.65743    0.83567   1.00
C6       0.32534    0.62211    0.83004   1.00
H3       0.33103    0.71599    0.84494   1.00
H3       0.38778    0.60809    0.82795   1.00
H3       0.27559    0.66241    0.83650   1.00
H3       0.31165    0.59403    0.82570   1.00
C4       0.18585    0.41505    0.91492   1.00
C4       0.14415    0.41495    0.91508   1.00
C3       0.20792    0.40542    0.88149   1.00
C3       0.12275    0.45006    0.91263   1.00
C3       0.20684    0.42505    0.94896   1.00
C3a      0.12237    0.37946    0.91719   1.00
C2       0.27017    0.41510    0.91650   1.00
C2       0.05983    0.41522    0.91355   1.00
C3       0.24934    0.40544    0.88234   1.00
C3       0.08141    0.45013    0.91186   1.00
C3       0.24820    0.42490    0.94977   1.00
C3       0.08085    0.38016    0.91626   1.00
H1       0.19308    0.39782    0.85466   1.00
H1       0.13815    0.47762    0.91101   1.00
H1       0.26532    0.39783    0.85619   1.00
H1       0.06605    0.47766    0.90986   1.00
H1       0.26321    0.43221    0.97658   1.00
H1       0.06457    0.35314    0.91800   1.00
C5       0.14261    0.34040    0.92128   1.00
H1       0.19099    0.43201    0.97539   1.00
H2       0.12146    0.31597    0.91850   1.00
H2       0.16397    0.33683    0.89715   1.00
N1       0.16208    0.33737    0.95917   1.00
C6       0.14488    0.33996    0.99440   1.00
C6       0.20040    0.33110    0.96515   1.00
C6       0.17257    0.33567    1.02327   1.00
C6       0.20789    0.33004    1.00466   1.00
H3       0.11401    0.34494    0.99897   1.00
H3       0.22191    0.32795    0.94222   1.00
H3       0.16759    0.33650    1.05441   1.00
H3       0.23597    0.32570    1.01835   1.00
C4       0.64415    0.41505    0.91508   1.00
C4       0.68585    0.41495    0.91492   1.00
C3       0.62208    0.40542    0.94851   1.00
C3       0.70725    0.45006    0.91737   1.00
C3       0.62316    0.42505    0.88104   1.00
C3a      0.70763    0.37946    0.91281   1.00
C2       0.55983    0.41510    0.91350   1.00
C2       0.77017    0.41522    0.91645   1.00
C3       0.58066    0.40544    0.94766   1.00
C3       0.74859    0.45013    0.91814   1.00
C3       0.58180    0.42490    0.88023   1.00
C3       0.74915    0.38016    0.91374   1.00
H1       0.63692    0.39782    0.97534   1.00
H1       0.69185    0.47762    0.91899   1.00
H1       0.56468    0.39783    0.97381   1.00
H1       0.76395    0.47766    0.92014   1.00
H1       0.56679    0.43221    0.85342   1.00
H1       0.76543    0.35314    0.91200   1.00
C5       0.68739    0.34040    0.90872   1.00
H1       0.63901    0.43201    0.85461   1.00
H2       0.70854    0.31597    0.91150   1.00
H2       0.66603    0.33683    0.93285   1.00
N1       0.66792    0.33737    0.87083   1.00
C6       0.68512    0.33996    0.83560   1.00
C6       0.62960    0.33110    0.86485   1.00
C6       0.65743    0.33567    0.80673   1.00
C6       0.62211    0.33004    0.82534   1.00
H3       0.71599    0.34494    0.83103   1.00
H3       0.60809    0.32795    0.88778   1.00
H3       0.66241    0.33650    0.77559   1.00
H3       0.59403    0.32570    0.81165   1.00
C4       0.41492    0.18585    0.91505   1.00
C4       0.41508    0.14415    0.91495   1.00
C3       0.38149    0.20792    0.90542   1.00
C3       0.41263    0.12275    0.95006   1.00
C3       0.44896    0.20684    0.92505   1.00
C3a      0.41719    0.12237    0.87946   1.00
C2       0.41650    0.27017    0.91510   1.00
C2       0.41355    0.05983    0.91522   1.00
C3       0.38234    0.24934    0.90544   1.00
C3       0.41186    0.08141    0.95013   1.00
C3       0.44977    0.24820    0.92490   1.00
C3       0.41626    0.08085    0.88016   1.00
H1       0.35466    0.19308    0.89782   1.00
H1       0.41101    0.13815    0.97762   1.00
H1       0.35619    0.26532    0.89783   1.00
H1       0.40986    0.06605    0.97766   1.00
H1       0.47658    0.26321    0.93221   1.00
H1       0.41800    0.06457    0.85314   1.00
C5       0.42128    0.14261    0.84040   1.00
H1       0.47539    0.19099    0.93201   1.00
H2       0.41850    0.12146    0.81597   1.00
H2       0.39715    0.16397    0.83683   1.00
N1       0.45917    0.16208    0.83737   1.00
C6       0.49440    0.14488    0.83996   1.00
C6       0.46515    0.20040    0.83110   1.00
C6       0.52327    0.17257    0.83567   1.00
C6       0.50466    0.20789    0.83004   1.00
H3       0.49897    0.11401    0.84494   1.00
H3       0.44222    0.22191    0.82795   1.00
H3       0.55441    0.16759    0.83650   1.00
H3       0.51835    0.23597    0.82570   1.00
C4       0.41505    0.41492    0.68585   1.00
C4       0.41495    0.41508    0.64415   1.00
C3       0.40542    0.38149    0.70792   1.00
C3       0.45006    0.41263    0.62275   1.00
C3       0.42505    0.44896    0.70684   1.00
C3a      0.37946    0.41719    0.62237   1.00
C2       0.41510    0.41650    0.77017   1.00
C2       0.41522    0.41355    0.55983   1.00
C3       0.40544    0.38234    0.74934   1.00
C3       0.45013    0.41186    0.58141   1.00
C3       0.42490    0.44977    0.74820   1.00
C3       0.38016    0.41626    0.58085   1.00
H1       0.39782    0.35466    0.69308   1.00
H1       0.47762    0.41101    0.63815   1.00
H1       0.39783    0.35619    0.76532   1.00
H1       0.47766    0.40986    0.56605   1.00
H1       0.43221    0.47658    0.76321   1.00
H1       0.35314    0.41800    0.56457   1.00
C5       0.34040    0.42128    0.64261   1.00
H1       0.43201    0.47539    0.69099   1.00
H2       0.31597    0.41850    0.62146   1.00
H2       0.33683    0.39715    0.66397   1.00
N1       0.33737    0.45917    0.66208   1.00
C6       0.33996    0.49440    0.64488   1.00
C6       0.33110    0.46515    0.70040   1.00
C6       0.33567    0.52327    0.67257   1.00
C6       0.33004    0.50466    0.70789   1.00
H3       0.34494    0.49897    0.61401   1.00
H3       0.32795    0.44222    0.72191   1.00
H3       0.33650    0.55441    0.66759   1.00
H3       0.32570    0.51835    0.73597   1.00
C4       0.41505    0.91508    0.64415   1.00
C4       0.41495    0.91492    0.68585   1.00
C3       0.40542    0.94851    0.62208   1.00
C3       0.45006    0.91737    0.70725   1.00
C3       0.42505    0.88104    0.62316   1.00
C3a      0.37946    0.91281    0.70763   1.00
C2       0.41510    0.91350    0.55983   1.00
C2       0.41522    0.91645    0.77017   1.00
C3       0.40544    0.94766    0.58066   1.00
C3       0.45013    0.91814    0.74859   1.00
C3       0.42490    0.88023    0.58180   1.00
C3       0.38016    0.91374    0.74915   1.00
H1       0.39782    0.97534    0.63692   1.00
H1       0.47762    0.91899    0.69185   1.00
H1       0.39783    0.97381    0.56468   1.00
H1       0.47766    0.92014    0.76395   1.00
H1       0.43221    0.85342    0.56679   1.00
H1       0.35314    0.91200    0.76543   1.00
C5       0.34040    0.90872    0.68739   1.00
H1       0.43201    0.85461    0.63901   1.00
H2       0.31597    0.91150    0.70854   1.00
H2       0.33683    0.93285    0.66603   1.00
N1       0.33737    0.87083    0.66792   1.00
C6       0.33996    0.83560    0.68512   1.00
C6       0.33110    0.86485    0.62960   1.00
C6       0.33567    0.80673    0.65743   1.00
C6       0.33004    0.82534    0.62211   1.00
H3       0.34494    0.83103    0.71599   1.00
H3       0.32795    0.88778    0.60809   1.00
H3       0.33650    0.77559    0.66241   1.00
H3       0.32570    0.81165    0.59403   1.00
C4       0.41508    1.14415    0.41505   1.00
C4       0.41492    1.18585    0.41495   1.00
C3       0.44851    1.12208    0.40542   1.00
C3       0.41737    1.20725    0.45006   1.00
C3       0.38104    1.12316    0.42505   1.00
C3a      0.41281    1.20763    0.37946   1.00
C2       0.41350    1.05983    0.41510   1.00
C2       0.41645    1.27017    0.41522   1.00
C3       0.44766    1.08066    0.40544   1.00
C3       0.41814    1.24859    0.45013   1.00
C3       0.38023    1.08180    0.42490   1.00
C3       0.41374    1.24915    0.38016   1.00
H1       0.47534    1.13692    0.39782   1.00
H1       0.41899    1.19185    0.47762   1.00
H1       0.47381    1.06468    0.39783   1.00
H1       0.42014    1.26395    0.47766   1.00
H1       0.35342    1.06679    0.43221   1.00
H1       0.41200    1.26543    0.35314   1.00
C5       0.40872    1.18739    0.34040   1.00
H1       0.35461    1.13901    0.43201   1.00
H2       0.41150    1.20854    0.31597   1.00
H2       0.43285    1.16603    0.33683   1.00
N1       0.37083    1.16792    0.33737   1.00
C6       0.33560    1.18512    0.33996   1.00
C6       0.36485    1.12960    0.33110   1.00
C6       0.30673    1.15743    0.33567   1.00
C6       0.32534    1.12211    0.33004   1.00
H3       0.33103    1.21599    0.34494   1.00
H3       0.38778    1.10809    0.32795   1.00
H3       0.27559    1.16241    0.33650   1.00
H3       0.31165    1.09403    0.32570   1.00
C4       0.18585    0.91505    0.41492   1.00
C4       0.14415    0.91495    0.41508   1.00
C3       0.20792    0.90542    0.38149   1.00
C3       0.12275    0.95006    0.41263   1.00
C3       0.20684    0.92505    0.44896   1.00
C3a      0.12237    0.87946    0.41719   1.00
C2       0.27017    0.91510    0.41650   1.00
C2       0.05983    0.91522    0.41355   1.00
C3       0.24934    0.90544    0.38234   1.00
C3       0.08141    0.95013    0.41186   1.00
C3       0.24820    0.92490    0.44977   1.00
C3       0.08085    0.88016    0.41626   1.00
H1       0.19308    0.89782    0.35466   1.00
H1       0.13815    0.97762    0.41101   1.00
H1       0.26532    0.89783    0.35619   1.00
H1       0.06605    0.97766    0.40986   1.00
H1       0.26321    0.93221    0.47658   1.00
H1       0.06457    0.85314    0.41800   1.00
C5       0.14261    0.84040    0.42128   1.00
H1       0.19099    0.93201    0.47539   1.00
H2       0.12146    0.81597    0.41850   1.00
H2       0.16397    0.83683    0.39715   1.00
N1       0.16208    0.83737    0.45917   1.00
C6       0.14488    0.83996    0.49440   1.00
C6       0.20040    0.83110    0.46515   1.00
C6       0.17257    0.83567    0.52327   1.00
C6       0.20789    0.83004    0.50466   1.00
H3       0.11401    0.84494    0.49897   1.00
H3       0.22191    0.82795    0.44222   1.00
H3       0.16759    0.83650    0.55441   1.00
H3       0.23597    0.82570    0.51835   1.00
C4       0.64415    0.91505    0.41508   1.00
C4       0.68585    0.91495    0.41492   1.00
C3       0.62208    0.90542    0.44851   1.00
C3       0.70725    0.95006    0.41737   1.00
C3       0.62316    0.92505    0.38104   1.00
C3a      0.70763    0.87946    0.41281   1.00
C2       0.55983    0.91510    0.41350   1.00
C2       0.77017    0.91522    0.41645   1.00
C3       0.58066    0.90544    0.44766   1.00
C3       0.74859    0.95013    0.41814   1.00
C3       0.58180    0.92490    0.38023   1.00
C3       0.74915    0.88016    0.41374   1.00
H1       0.63692    0.89782    0.47534   1.00
H1       0.69185    0.97762    0.41899   1.00
H1       0.56468    0.89783    0.47381   1.00
H1       0.76395    0.97766    0.42014   1.00
H1       0.56679    0.93221    0.35342   1.00
H1       0.76543    0.85314    0.41200   1.00
C5       0.68739    0.84040    0.40872   1.00
H1       0.63901    0.93201    0.35461   1.00
H2       0.70854    0.81597    0.41150   1.00
H2       0.66603    0.83683    0.43285   1.00
N1       0.66792    0.83737    0.37083   1.00
C6       0.68512    0.83996    0.33560   1.00
C6       0.62960    0.83110    0.36485   1.00
C6       0.65743    0.83567    0.30673   1.00
C6       0.62211    0.83004    0.32534   1.00
H3       0.71599    0.84494    0.33103   1.00
H3       0.60809    0.82795    0.38778   1.00
H3       0.66241    0.83650    0.27559   1.00
H3       0.59403    0.82570    0.31165   1.00
C4       0.41492    0.68585    0.41505   1.00
C4       0.41508    0.64415    0.41495   1.00
C3       0.38149    0.70792    0.40542   1.00
C3       0.41263    0.62275    0.45006   1.00
C3       0.44896    0.70684    0.42505   1.00
C3a      0.41719    0.62237    0.37946   1.00
C2       0.41650    0.77017    0.41510   1.00
C2       0.41355    0.55983    0.41522   1.00
C3       0.38234    0.74934    0.40544   1.00
C3       0.41186    0.58141    0.45013   1.00
C3       0.44977    0.74820    0.42490   1.00
C3       0.41626    0.58085    0.38016   1.00
H1       0.35466    0.69308    0.39782   1.00
H1       0.41101    0.63815    0.47762   1.00
H1       0.35619    0.76532    0.39783   1.00
H1       0.40986    0.56605    0.47766   1.00
H1       0.47658    0.76321    0.43221   1.00
H1       0.41800    0.56457    0.35314   1.00
C5       0.42128    0.64261    0.34040   1.00
H1       0.47539    0.69099    0.43201   1.00
H2       0.41850    0.62146    0.31597   1.00
H2       0.39715    0.66397    0.33683   1.00
N1       0.45917    0.66208    0.33737   1.00
C6       0.49440    0.64488    0.33996   1.00
C6       0.46515    0.70040    0.33110   1.00
C6       0.52327    0.67257    0.33567   1.00
C6       0.50466    0.70789    0.33004   1.00
H3       0.49897    0.61401    0.34494   1.00
H3       0.44222    0.72191    0.32795   1.00
H3       0.55441    0.66759    0.33650   1.00
H3       0.51835    0.73597    0.32570   1.00
C4       0.41505    0.91492    0.18585   1.00
C4       0.41495    0.91508    0.14415   1.00
C3       0.40542    0.88149    0.20792   1.00
C3       0.45006    0.91263    0.12275   1.00
C3       0.42505    0.94896    0.20684   1.00
C3a      0.37946    0.91719    0.12237   1.00
C2       0.41510    0.91650    0.27017   1.00
C2       0.41522    0.91355    0.05983   1.00
C3       0.40544    0.88234    0.24934   1.00
C3       0.45013    0.91186    0.08141   1.00
C3       0.42490    0.94977    0.24820   1.00
C3       0.38016    0.91626    0.08085   1.00
H1       0.39782    0.85466    0.19308   1.00
H1       0.47762    0.91101    0.13815   1.00
H1       0.39783    0.85619    0.26532   1.00
H1       0.47766    0.90986    0.06605   1.00
H1       0.43221    0.97658    0.26321   1.00
H1       0.35314    0.91800    0.06457   1.00
C5       0.34040    0.92128    0.14261   1.00
H1       0.43201    0.97539    0.19099   1.00
H2       0.31597    0.91850    0.12146   1.00
H2       0.33683    0.89715    0.16397   1.00
N1       0.33737    0.95917    0.16208   1.00
C6       0.33996    0.99440    0.14488   1.00
C6       0.33110    0.96515    0.20040   1.00
C6       0.33567    1.02327    0.17257   1.00
C6       0.33004    1.00466    0.20789   1.00
H3       0.34494    0.99897    0.11401   1.00
H3       0.32795    0.94222    0.22191   1.00
H3       0.33650    1.05441    0.16759   1.00
H3       0.32570    1.01835    0.23597   1.00
C4       0.91505    0.41508    0.64415   1.00
C4       0.91495    0.41492    0.68585   1.00
C3       0.90542    0.44851    0.62208   1.00
C3       0.95006    0.41737    0.70725   1.00
C3       0.92505    0.38104    0.62316   1.00
C3a      0.87946    0.41281    0.70763   1.00
C2       0.91510    0.41350    0.55983   1.00
C2       0.91522    0.41645    0.77017   1.00
C3       0.90544    0.44766    0.58066   1.00
C3       0.95013    0.41814    0.74859   1.00
C3       0.92490    0.38023    0.58180   1.00
C3       0.88016    0.41374    0.74915   1.00
H1       0.89782    0.47534    0.63692   1.00
H1       0.97762    0.41899    0.69185   1.00
H1       0.89783    0.47381    0.56468   1.00
H1       0.97766    0.42014    0.76395   1.00
H1       0.93221    0.35342    0.56679   1.00
H1       0.85314    0.41200    0.76543   1.00
C5       0.84040    0.40872    0.68739   1.00
H1       0.93201    0.35461    0.63901   1.00
H2       0.81597    0.41150    0.70854   1.00
H2       0.83683    0.43285    0.66603   1.00
N1       0.83737    0.37083    0.66792   1.00
C6       0.83996    0.33560    0.68512   1.00
C6       0.83110    0.36485    0.62960   1.00
C6       0.83567    0.30673    0.65743   1.00
C6       0.83004    0.32534    0.62211   1.00
H3       0.84494    0.33103    0.71599   1.00
H3       0.82795    0.38778    0.60809   1.00
H3       0.83650    0.27559    0.66241   1.00
H3       0.82570    0.31165    0.59403   1.00
C4       0.91508    0.64415    0.41505   1.00
C4       0.91492    0.68585    0.41495   1.00
C3       0.94851    0.62208    0.40542   1.00
C3       0.91737    0.70725    0.45006   1.00
C3       0.88104    0.62316    0.42505   1.00
C3a      0.91281    0.70763    0.37946   1.00
C2       0.91350    0.55983    0.41510   1.00
C2       0.91645    0.77017    0.41522   1.00
C3       0.94766    0.58066    0.40544   1.00
C3       0.91814    0.74859    0.45013   1.00
C3       0.88023    0.58180    0.42490   1.00
C3       0.91374    0.74915    0.38016   1.00
H1       0.97534    0.63692    0.39782   1.00
H1       0.91899    0.69185    0.47762   1.00
H1       0.97381    0.56468    0.39783   1.00
H1       0.92014    0.76395    0.47766   1.00
H1       0.85342    0.56679    0.43221   1.00
H1       0.91200    0.76543    0.35314   1.00
C5       0.90872    0.68739    0.34040   1.00
H1       0.85461    0.63901    0.43201   1.00
H2       0.91150    0.70854    0.31597   1.00
H2       0.93285    0.66603    0.33683   1.00
N1       0.87083    0.66792    0.33737   1.00
C6       0.83560    0.68512    0.33996   1.00
C6       0.86485    0.62960    0.33110   1.00
C6       0.80673    0.65743    0.33567   1.00
C6       0.82534    0.62211    0.33004   1.00
H3       0.83103    0.71599    0.34494   1.00
H3       0.88778    0.60809    0.32795   1.00
H3       0.77559    0.66241    0.33650   1.00
H3       0.81165    0.59403    0.32570   1.00
C4       0.68585    0.41505    0.41492   1.00
C4       0.64415    0.41495    0.41508   1.00
C3       0.70792    0.40542    0.38149   1.00
C3       0.62275    0.45006    0.41263   1.00
C3       0.70684    0.42505    0.44896   1.00
C3a      0.62237    0.37946    0.41719   1.00
C2       0.77017    0.41510    0.41650   1.00
C2       0.55983    0.41522    0.41355   1.00
C3       0.74934    0.40544    0.38234   1.00
C3       0.58141    0.45013    0.41186   1.00
C3       0.74820    0.42490    0.44977   1.00
C3       0.58085    0.38016    0.41626   1.00
H1       0.69308    0.39782    0.35466   1.00
H1       0.63815    0.47762    0.41101   1.00
H1       0.76532    0.39783    0.35619   1.00
H1       0.56605    0.47766    0.40986   1.00
H1       0.76321    0.43221    0.47658   1.00
H1       0.56457    0.35314    0.41800   1.00
C5       0.64261    0.34040    0.42128   1.00
H1       0.69099    0.43201    0.47539   1.00
H2       0.62146    0.31597    0.41850   1.00
H2       0.66397    0.33683    0.39715   1.00
N1       0.66208    0.33737    0.45917   1.00
C6       0.64488    0.33996    0.49440   1.00
C6       0.70040    0.33110    0.46515   1.00
C6       0.67257    0.33567    0.52327   1.00
C6       0.70789    0.33004    0.50466   1.00
H3       0.61401    0.34494    0.49897   1.00
H3       0.72191    0.32795    0.44222   1.00
H3       0.66759    0.33650    0.55441   1.00
H3       0.73597    0.32570    0.51835   1.00
C4       1.14415    0.41505    0.41508   1.00
C4       1.18585    0.41495    0.41492   1.00
C3       1.12208    0.40542    0.44851   1.00
C3       1.20725    0.45006    0.41737   1.00
C3       1.12316    0.42505    0.38104   1.00
C3a      1.20763    0.37946    0.41281   1.00
C2       1.05983    0.41510    0.41350   1.00
C2       1.27017    0.41522    0.41645   1.00
C3       1.08066    0.40544    0.44766   1.00
C3       1.24859    0.45013    0.41814   1.00
C3       1.08180    0.42490    0.38023   1.00
C3       1.24915    0.38016    0.41374   1.00
H1       1.13692    0.39782    0.47534   1.00
H1       1.19185    0.47762    0.41899   1.00
H1       1.06468    0.39783    0.47381   1.00
H1       1.26395    0.47766    0.42014   1.00
H1       1.06679    0.43221    0.35342   1.00
H1       1.26543    0.35314    0.41200   1.00
C5       1.18739    0.34040    0.40872   1.00
H1       1.13901    0.43201    0.35461   1.00
H2       1.20854    0.31597    0.41150   1.00
H2       1.16603    0.33683    0.43285   1.00
N1       1.16792    0.33737    0.37083   1.00
C6       1.18512    0.33996    0.33560   1.00
C6       1.12960    0.33110    0.36485   1.00
C6       1.15743    0.33567    0.30673   1.00
C6       1.12211    0.33004    0.32534   1.00
H3       1.21599    0.34494    0.33103   1.00
H3       1.10809    0.32795    0.38778   1.00
H3       1.16241    0.33650    0.27559   1.00
H3       1.09403    0.32570    0.31165   1.00
C4       0.91492    0.18585    0.41505   1.00
C4       0.91508    0.14415    0.41495   1.00
C3       0.88149    0.20792    0.40542   1.00
C3       0.91263    0.12275    0.45006   1.00
C3       0.94896    0.20684    0.42505   1.00
C3a      0.91719    0.12237    0.37946   1.00
C2       0.91650    0.27017    0.41510   1.00
C2       0.91355    0.05983    0.41522   1.00
C3       0.88234    0.24934    0.40544   1.00
C3       0.91186    0.08141    0.45013   1.00
C3       0.94977    0.24820    0.42490   1.00
C3       0.91626    0.08085    0.38016   1.00
H1       0.85466    0.19308    0.39782   1.00
H1       0.91101    0.13815    0.47762   1.00
H1       0.85619    0.26532    0.39783   1.00
H1       0.90986    0.06605    0.47766   1.00
H1       0.97658    0.26321    0.43221   1.00
H1       0.91800    0.06457    0.35314   1.00
C5       0.92128    0.14261    0.34040   1.00
H1       0.97539    0.19099    0.43201   1.00
H2       0.91850    0.12146    0.31597   1.00
H2       0.89715    0.16397    0.33683   1.00
N1       0.95917    0.16208    0.33737   1.00
C6       0.99440    0.14488    0.33996   1.00
C6       0.96515    0.20040    0.33110   1.00
C6       1.02327    0.17257    0.33567   1.00
C6       1.00466    0.20789    0.33004   1.00
H3       0.99897    0.11401    0.34494   1.00
H3       0.94222    0.22191    0.32795   1.00
H3       1.05441    0.16759    0.33650   1.00
H3       1.01835    0.23597    0.32570   1.00
C4       0.91505    0.41492    0.18585   1.00
C4       0.91495    0.41508    0.14415   1.00
C3       0.90542    0.38149    0.20792   1.00
C3       0.95006    0.41263    0.12275   1.00
C3       0.92505    0.44896    0.20684   1.00
C3a      0.87946    0.41719    0.12237   1.00
C2       0.91510    0.41650    0.27017   1.00
C2       0.91522    0.41355    0.05983   1.00
C3       0.90544    0.38234    0.24934   1.00
C3       0.95013    0.41186    0.08141   1.00
C3       0.92490    0.44977    0.24820   1.00
C3       0.88016    0.41626    0.08085   1.00
H1       0.89782    0.35466    0.19308   1.00
H1       0.97762    0.41101    0.13815   1.00
H1       0.89783    0.35619    0.26532   1.00
H1       0.97766    0.40986    0.06605   1.00
H1       0.93221    0.47658    0.26321   1.00
H1       0.85314    0.41800    0.06457   1.00
C5       0.84040    0.42128    0.14261   1.00
H1       0.93201    0.47539    0.19099   1.00
H2       0.81597    0.41850    0.12146   1.00
H2       0.83683    0.39715    0.16397   1.00
N1       0.83737    0.45917    0.16208   1.00
C6       0.83996    0.49440    0.14488   1.00
C6       0.83110    0.46515    0.20040   1.00
C6       0.83567    0.52327    0.17257   1.00
C6       0.83004    0.50466    0.20789   1.00
H3       0.84494    0.49897    0.11401   1.00
H3       0.82795    0.44222    0.22191   1.00
H3       0.83650    0.55441    0.16759   1.00
H3       0.82570    0.51835    0.23597   1.00
