data_IRMOF10_SG202_interpen_Ligand1cp_label_e.

_audit_creation_method             'generated by an auxiliary program of Tobunporous'

_symmetry_space_group_name_H-M     'P 1'
_symmetry_Int_Tables_number        1
_symmetry_cell_setting             triclinic

_cell_length_a                    34.2800
_cell_length_b                    34.2800
_cell_length_c                    34.2800
_cell_angle_alpha                 90.0000
_cell_angle_beta                  90.0000
_cell_angle_gamma                 90.0000

loop_
_atom_site_label
_atom_site_fract_x
_atom_site_fract_y
_atom_site_fract_z
_atom_site_occupancy
O1       0.75000    0.75000    0.75000   1.00
Zn1      0.71720    0.78280    0.78280   1.00
Zn1      0.78280    0.71720    0.78280   1.00
Zn1      0.78280    0.78280    0.71720   1.00
Zn1      0.71720    0.71720    0.71720   1.00
O2       0.72650    0.77350    0.83820   1.00
O2       0.72650    0.83820    0.77350   1.00
O2       0.66180    0.77350    0.77350   1.00
O2       0.77350    0.72650    0.83820   1.00
O2       0.83820    0.72650    0.77350   1.00
O2       0.77350    0.66180    0.77350   1.00
O2       0.77350    0.83820    0.72650   1.00
O2       0.83820    0.77350    0.72650   1.00
O2       0.77350    0.77350    0.66180   1.00
O2       0.66180    0.72650    0.72650   1.00
O2       0.72650    0.66180    0.72650   1.00
O2       0.72650    0.72650    0.66180   1.00
C1       0.75000    0.75000    0.85520   1.00
C1       0.75000    0.85520    0.75000   1.00
C1       0.64480    0.75000    0.75000   1.00
C1       0.85520    0.75000    0.75000   1.00
C1       0.75000    0.64480    0.75000   1.00
C1       0.75000    0.75000    0.64480   1.00
O1       0.25000    0.25000    0.75000   1.00
Zn1      0.21720    0.28280    0.78280   1.00
Zn1      0.28280    0.21720    0.78280   1.00
Zn1      0.28280    0.28280    0.71720   1.00
Zn1      0.21720    0.21720    0.71720   1.00
O2       0.22650    0.27350    0.83820   1.00
O2       0.22650    0.33820    0.77350   1.00
O2       0.16180    0.27350    0.77350   1.00
O2       0.27350    0.22650    0.83820   1.00
O2       0.33820    0.22650    0.77350   1.00
O2       0.27350    0.16180    0.77350   1.00
O2       0.27350    0.33820    0.72650   1.00
O2       0.33820    0.27350    0.72650   1.00
O2       0.27350    0.27350    0.66180   1.00
O2       0.16180    0.22650    0.72650   1.00
O2       0.22650    0.16180    0.72650   1.00
O2       0.22650    0.22650    0.66180   1.00
C1       0.25000    0.25000    0.85520   1.00
C1       0.25000    0.35520    0.75000   1.00
C1       0.14480    0.25000    0.75000   1.00
C1       0.35520    0.25000    0.75000   1.00
C1       0.25000    0.14480    0.75000   1.00
C1       0.25000    0.25000    0.64480   1.00
O1       0.25000    0.75000    0.25000   1.00
Zn1      0.21720    0.78280    0.28280   1.00
Zn1      0.28280    0.71720    0.28280   1.00
Zn1      0.28280    0.78280    0.21720   1.00
Zn1      0.21720    0.71720    0.21720   1.00
O2       0.22650    0.77350    0.33820   1.00
O2       0.22650    0.83820    0.27350   1.00
O2       0.16180    0.77350    0.27350   1.00
O2       0.27350    0.72650    0.33820   1.00
O2       0.33820    0.72650    0.27350   1.00
O2       0.27350    0.66180    0.27350   1.00
O2       0.27350    0.83820    0.22650   1.00
O2       0.33820    0.77350    0.22650   1.00
O2       0.27350    0.77350    0.16180   1.00
O2       0.16180    0.72650    0.22650   1.00
O2       0.22650    0.66180    0.22650   1.00
O2       0.22650    0.72650    0.16180   1.00
C1       0.25000    0.75000    0.35520   1.00
C1       0.25000    0.85520    0.25000   1.00
C1       0.14480    0.75000    0.25000   1.00
C1       0.35520    0.75000    0.25000   1.00
C1       0.25000    0.64480    0.25000   1.00
C1       0.25000    0.75000    0.14480   1.00
O1       0.75000    0.25000    0.25000   1.00
Zn1      0.71720    0.28280    0.28280   1.00
Zn1      0.78280    0.21720    0.28280   1.00
Zn1      0.78280    0.28280    0.21720   1.00
Zn1      0.71720    0.21720    0.21720   1.00
O2       0.72650    0.27350    0.33820   1.00
O2       0.72650    0.33820    0.27350   1.00
O2       0.66180    0.27350    0.27350   1.00
O2       0.77350    0.22650    0.33820   1.00
O2       0.83820    0.22650    0.27350   1.00
O2       0.77350    0.16180    0.27350   1.00
O2       0.77350    0.33820    0.22650   1.00
O2       0.83820    0.27350    0.22650   1.00
O2       0.77350    0.27350    0.16180   1.00
O2       0.66180    0.22650    0.22650   1.00
O2       0.72650    0.16180    0.22650   1.00
O2       0.72650    0.22650    0.16180   1.00
C1       0.75000    0.25000    0.35520   1.00
C1       0.75000    0.35520    0.25000   1.00
C1       0.64480    0.25000    0.25000   1.00
C1       0.85520    0.25000    0.25000   1.00
C1       0.75000    0.14480    0.25000   1.00
C1       0.75000    0.25000    0.14480   1.00
O1       0.25000    0.25000    0.25000   1.00
Zn1      0.28280    0.21720    0.21720   1.00
Zn1      0.21720    0.28280    0.21720   1.00
Zn1      0.21720    0.21720    0.28280   1.00
Zn1      0.28280    0.28280    0.28280   1.00
O2       0.27350    0.22650    0.16180   1.00
O2       0.27350    0.16180    0.22650   1.00
O2       0.33820    0.22650    0.22650   1.00
O2       0.22650    0.27350    0.16180   1.00
O2       0.16180    0.27350    0.22650   1.00
O2       0.22650    0.33820    0.22650   1.00
O2       0.22650    0.16180    0.27350   1.00
O2       0.16180    0.22650    0.27350   1.00
O2       0.22650    0.22650    0.33820   1.00
O2       0.33820    0.27350    0.27350   1.00
O2       0.27350    0.33820    0.27350   1.00
O2       0.27350    0.27350    0.33820   1.00
C1       0.25000    0.25000    0.14480   1.00
C1       0.25000    0.14480    0.25000   1.00
C1       0.35520    0.25000    0.25000   1.00
C1       0.14480    0.25000    0.25000   1.00
C1       0.25000    0.35520    0.25000   1.00
C1       0.25000    0.25000    0.35520   1.00
O1       0.75000    0.75000    0.25000   1.00
Zn1      0.78280    0.71720    0.21720   1.00
Zn1      0.71720    0.78280    0.21720   1.00
Zn1      0.71720    0.71720    0.28280   1.00
Zn1      0.78280    0.78280    0.28280   1.00
O2       0.77350    0.72650    0.16180   1.00
O2       0.77350    0.66180    0.22650   1.00
O2       0.83820    0.72650    0.22650   1.00
O2       0.72650    0.77350    0.16180   1.00
O2       0.66180    0.77350    0.22650   1.00
O2       0.72650    0.83820    0.22650   1.00
O2       0.72650    0.66180    0.27350   1.00
O2       0.66180    0.72650    0.27350   1.00
O2       0.72650    0.72650    0.33820   1.00
O2       0.83820    0.77350    0.27350   1.00
O2       0.77350    0.83820    0.27350   1.00
O2       0.77350    0.77350    0.33820   1.00
C1       0.75000    0.75000    0.14480   1.00
C1       0.75000    0.64480    0.25000   1.00
C1       0.85520    0.75000    0.25000   1.00
C1       0.64480    0.75000    0.25000   1.00
C1       0.75000    0.85520    0.25000   1.00
C1       0.75000    0.75000    0.35520   1.00
O1       0.75000    0.25000    0.75000   1.00
Zn1      0.78280    0.21720    0.71720   1.00
Zn1      0.71720    0.28280    0.71720   1.00
Zn1      0.71720    0.21720    0.78280   1.00
Zn1      0.78280    0.28280    0.78280   1.00
O2       0.77350    0.22650    0.66180   1.00
O2       0.77350    0.16180    0.72650   1.00
O2       0.83820    0.22650    0.72650   1.00
O2       0.72650    0.27350    0.66180   1.00
O2       0.66180    0.27350    0.72650   1.00
O2       0.72650    0.33820    0.72650   1.00
O2       0.72650    0.16180    0.77350   1.00
O2       0.66180    0.22650    0.77350   1.00
O2       0.72650    0.22650    0.83820   1.00
O2       0.83820    0.27350    0.77350   1.00
O2       0.77350    0.33820    0.77350   1.00
O2       0.77350    0.27350    0.83820   1.00
C1       0.75000    0.25000    0.64480   1.00
C1       0.75000    0.14480    0.75000   1.00
C1       0.85520    0.25000    0.75000   1.00
C1       0.64480    0.25000    0.75000   1.00
C1       0.75000    0.35520    0.75000   1.00
C1       0.75000    0.25000    0.85520   1.00
O1       0.25000    0.75000    0.75000   1.00
Zn1      0.28280    0.71720    0.71720   1.00
Zn1      0.21720    0.78280    0.71720   1.00
Zn1      0.21720    0.71720    0.78280   1.00
Zn1      0.28280    0.78280    0.78280   1.00
O2       0.27350    0.72650    0.66180   1.00
O2       0.27350    0.66180    0.72650   1.00
O2       0.33820    0.72650    0.72650   1.00
O2       0.22650    0.77350    0.66180   1.00
O2       0.16180    0.77350    0.72650   1.00
O2       0.22650    0.83820    0.72650   1.00
O2       0.22650    0.66180    0.77350   1.00
O2       0.16180    0.72650    0.77350   1.00
O2       0.22650    0.72650    0.83820   1.00
O2       0.33820    0.77350    0.77350   1.00
O2       0.27350    0.83820    0.77350   1.00
O2       0.27350    0.77350    0.83820   1.00
C1       0.25000    0.75000    0.64480   1.00
C1       0.25000    0.64480    0.75000   1.00
C1       0.35520    0.75000    0.75000   1.00
C1       0.14480    0.75000    0.75000   1.00
C1       0.25000    0.85520    0.75000   1.00
C1       0.25000    0.75000    0.85520   1.00
O1       0.91500    0.91500    0.91500   1.00
Zn1      0.88220    0.94780    0.94780   1.00
Zn1      0.94780    0.88220    0.94780   1.00
Zn1      0.94780    0.94780    0.88220   1.00
Zn1      0.88220    0.88220    0.88220   1.00
O2       0.89150    0.93850    1.00320   1.00
O2       0.89150    1.00320    0.93850   1.00
O2       0.82680    0.93850    0.93850   1.00
O2       0.93850    0.89150    1.00320   1.00
O2       1.00320    0.89150    0.93850   1.00
O2       0.93850    0.82680    0.93850   1.00
O2       0.93850    1.00320    0.89150   1.00
O2       1.00320    0.93850    0.89150   1.00
O2       0.93850    0.93850    0.82680   1.00
O2       0.82680    0.89150    0.89150   1.00
O2       0.89150    0.82680    0.89150   1.00
O2       0.89150    0.89150    0.82680   1.00
C1       0.91500    0.91500    1.02020   1.00
C1       0.91500    1.02020    0.91500   1.00
C1       0.80980    0.91500    0.91500   1.00
C1       1.02020    0.91500    0.91500   1.00
C1       0.91500    0.80980    0.91500   1.00
C1       0.91500    0.91500    0.80980   1.00
O1       0.41500    0.41500    0.91500   1.00
Zn1      0.38220    0.44780    0.94780   1.00
Zn1      0.44780    0.38220    0.94780   1.00
Zn1      0.44780    0.44780    0.88220   1.00
Zn1      0.38220    0.38220    0.88220   1.00
O2       0.39150    0.43850    1.00320   1.00
O2       0.39150    0.50320    0.93850   1.00
O2       0.32680    0.43850    0.93850   1.00
O2       0.43850    0.39150    1.00320   1.00
O2       0.50320    0.39150    0.93850   1.00
O2       0.43850    0.32680    0.93850   1.00
O2       0.43850    0.50320    0.89150   1.00
O2       0.50320    0.43850    0.89150   1.00
O2       0.43850    0.43850    0.82680   1.00
O2       0.32680    0.39150    0.89150   1.00
O2       0.39150    0.32680    0.89150   1.00
O2       0.39150    0.39150    0.82680   1.00
C1       0.41500    0.41500    1.02020   1.00
C1       0.41500    0.52020    0.91500   1.00
C1       0.30980    0.41500    0.91500   1.00
C1       0.52020    0.41500    0.91500   1.00
C1       0.41500    0.30980    0.91500   1.00
C1       0.41500    0.41500    0.80980   1.00
O1       0.41500    0.91500    0.41500   1.00
Zn1      0.38220    0.94780    0.44780   1.00
Zn1      0.44780    0.88220    0.44780   1.00
Zn1      0.44780    0.94780    0.38220   1.00
Zn1      0.38220    0.88220    0.38220   1.00
O2       0.39150    0.93850    0.50320   1.00
O2       0.39150    1.00320    0.43850   1.00
O2       0.32680    0.93850    0.43850   1.00
O2       0.43850    0.89150    0.50320   1.00
O2       0.50320    0.89150    0.43850   1.00
O2       0.43850    0.82680    0.43850   1.00
O2       0.43850    1.00320    0.39150   1.00
O2       0.50320    0.93850    0.39150   1.00
O2       0.43850    0.93850    0.32680   1.00
O2       0.32680    0.89150    0.39150   1.00
O2       0.39150    0.82680    0.39150   1.00
O2       0.39150    0.89150    0.32680   1.00
C1       0.41500    0.91500    0.52020   1.00
C1       0.41500    1.02020    0.41500   1.00
C1       0.30980    0.91500    0.41500   1.00
C1       0.52020    0.91500    0.41500   1.00
C1       0.41500    0.80980    0.41500   1.00
C1       0.41500    0.91500    0.30980   1.00
O1       0.91500    0.41500    0.41500   1.00
Zn1      0.88220    0.44780    0.44780   1.00
Zn1      0.94780    0.38220    0.44780   1.00
Zn1      0.94780    0.44780    0.38220   1.00
Zn1      0.88220    0.38220    0.38220   1.00
O2       0.89150    0.43850    0.50320   1.00
O2       0.89150    0.50320    0.43850   1.00
O2       0.82680    0.43850    0.43850   1.00
O2       0.93850    0.39150    0.50320   1.00
O2       1.00320    0.39150    0.43850   1.00
O2       0.93850    0.32680    0.43850   1.00
O2       0.93850    0.50320    0.39150   1.00
O2       1.00320    0.43850    0.39150   1.00
O2       0.93850    0.43850    0.32680   1.00
O2       0.82680    0.39150    0.39150   1.00
O2       0.89150    0.32680    0.39150   1.00
O2       0.89150    0.39150    0.32680   1.00
C1       0.91500    0.41500    0.52020   1.00
C1       0.91500    0.52020    0.41500   1.00
C1       0.80980    0.41500    0.41500   1.00
C1       1.02020    0.41500    0.41500   1.00
C1       0.91500    0.30980    0.41500   1.00
C1       0.91500    0.41500    0.30980   1.00
O1       0.41500    0.41500    0.41500   1.00
Zn1      0.44780    0.38220    0.38220   1.00
Zn1      0.38220    0.44780    0.38220   1.00
Zn1      0.38220    0.38220    0.44780   1.00
Zn1      0.44780    0.44780    0.44780   1.00
O2       0.43850    0.39150    0.32680   1.00
O2       0.43850    0.32680    0.39150   1.00
O2       0.50320    0.39150    0.39150   1.00
O2       0.39150    0.43850    0.32680   1.00
O2       0.32680    0.43850    0.39150   1.00
O2       0.39150    0.50320    0.39150   1.00
O2       0.39150    0.32680    0.43850   1.00
O2       0.32680    0.39150    0.43850   1.00
O2       0.39150    0.39150    0.50320   1.00
O2       0.50320    0.43850    0.43850   1.00
O2       0.43850    0.50320    0.43850   1.00
O2       0.43850    0.43850    0.50320   1.00
C1       0.41500    0.41500    0.30980   1.00
C1       0.41500    0.30980    0.41500   1.00
C1       0.52020    0.41500    0.41500   1.00
C1       0.30980    0.41500    0.41500   1.00
C1       0.41500    0.52020    0.41500   1.00
C1       0.41500    0.41500    0.52020   1.00
O1       0.91500    0.91500    0.41500   1.00
Zn1      0.94780    0.88220    0.38220   1.00
Zn1      0.88220    0.94780    0.38220   1.00
Zn1      0.88220    0.88220    0.44780   1.00
Zn1      0.94780    0.94780    0.44780   1.00
O2       0.93850    0.89150    0.32680   1.00
O2       0.93850    0.82680    0.39150   1.00
O2       1.00320    0.89150    0.39150   1.00
O2       0.89150    0.93850    0.32680   1.00
O2       0.82680    0.93850    0.39150   1.00
O2       0.89150    1.00320    0.39150   1.00
O2       0.89150    0.82680    0.43850   1.00
O2       0.82680    0.89150    0.43850   1.00
O2       0.89150    0.89150    0.50320   1.00
O2       1.00320    0.93850    0.43850   1.00
O2       0.93850    1.00320    0.43850   1.00
O2       0.93850    0.93850    0.50320   1.00
C1       0.91500    0.91500    0.30980   1.00
C1       0.91500    0.80980    0.41500   1.00
C1       1.02020    0.91500    0.41500   1.00
C1       0.80980    0.91500    0.41500   1.00
C1       0.91500    1.02020    0.41500   1.00
C1       0.91500    0.91500    0.52020   1.00
O1       0.91500    0.41500    0.91500   1.00
Zn1      0.94780    0.38220    0.88220   1.00
Zn1      0.88220    0.44780    0.88220   1.00
Zn1      0.88220    0.38220    0.94780   1.00
Zn1      0.94780    0.44780    0.94780   1.00
O2       0.93850    0.39150    0.82680   1.00
O2       0.93850    0.32680    0.89150   1.00
O2       1.00320    0.39150    0.89150   1.00
O2       0.89150    0.43850    0.82680   1.00
O2       0.82680    0.43850    0.89150   1.00
O2       0.89150    0.50320    0.89150   1.00
O2       0.89150    0.32680    0.93850   1.00
O2       0.82680    0.39150    0.93850   1.00
O2       0.89150    0.39150    1.00320   1.00
O2       1.00320    0.43850    0.93850   1.00
O2       0.93850    0.50320    0.93850   1.00
O2       0.93850    0.43850    1.00320   1.00
C1       0.91500    0.41500    0.80980   1.00
C1       0.91500    0.30980    0.91500   1.00
C1       1.02020    0.41500    0.91500   1.00
C1       0.80980    0.41500    0.91500   1.00
C1       0.91500    0.52020    0.91500   1.00
C1       0.91500    0.41500    1.02020   1.00
O1       0.41500    0.91500    0.91500   1.00
Zn1      0.44780    0.88220    0.88220   1.00
Zn1      0.38220    0.94780    0.88220   1.00
Zn1      0.38220    0.88220    0.94780   1.00
Zn1      0.44780    0.94780    0.94780   1.00
O2       0.43850    0.89150    0.82680   1.00
O2       0.43850    0.82680    0.89150   1.00
O2       0.50320    0.89150    0.89150   1.00
O2       0.39150    0.93850    0.82680   1.00
O2       0.32680    0.93850    0.89150   1.00
O2       0.39150    1.00320    0.89150   1.00
O2       0.39150    0.82680    0.93850   1.00
O2       0.32680    0.89150    0.93850   1.00
O2       0.39150    0.89150    1.00320   1.00
O2       0.50320    0.93850    0.93850   1.00
O2       0.43850    1.00320    0.93850   1.00
O2       0.43850    0.93850    1.00320   1.00
C1       0.41500    0.91500    0.80980   1.00
C1       0.41500    0.80980    0.91500   1.00
C1       0.52020    0.91500    0.91500   1.00
C1       0.30980    0.91500    0.91500   1.00
C1       0.41500    1.02020    0.91500   1.00
C1       0.41500    0.91500    1.02020   1.00
C5       0.79850    0.86739    1.13227   1.00
H2       0.76995    0.86851    1.14755   1.00
H2       0.79813    0.89184    1.11099   1.00
C5       0.83185    0.87305    1.16219   1.00
H2       0.83610    0.90455    1.16890   1.00
H2       0.85956    0.86089    1.15040   1.00
O_3      0.81905    0.73455    0.98000   1.00
C4       0.74956    0.74996    1.02100   1.00
C3c      0.75656    0.78418    1.04243   1.00
H1       0.76199    0.81129    1.02725   1.00
C3d      0.74199    0.71506    1.04135   1.00
C3       0.75723    0.78395    1.08354   1.00
O2       0.75951    0.81929    1.10248   1.00
C3       0.74337    0.71457    1.08227   1.00
H1       0.73876    0.68684    1.09657   1.00
C2       0.75083    0.74882    1.10439   1.00
C5       0.82820    0.69440    0.97879   1.00
H2       0.83247    0.68367    0.94838   1.00
H2       0.80472    0.67660    0.99266   1.00
C5       0.86600    0.68856    1.00122   1.00
H2       0.86208    0.70029    1.03129   1.00
H2       0.88930    0.70617    0.98691   1.00
C5       0.87740    0.64530    1.00254   1.00
H2       0.88109    0.63334    0.97260   1.00
H2       0.85478    0.62790    1.01803   1.00
H2       0.90553    0.64171    1.01830   1.00
C5       0.69841    0.67489    1.01105   1.00
C5       0.79894    0.82826    1.11070   1.00
H2       0.68850    0.69830    0.99088   1.00
H2       0.67891    0.67462    1.03712   1.00
H2       0.81586    0.83083    1.08300   1.00
H2       0.81342    0.80539    1.12895   1.00
H2       0.82490    0.85848    1.19055   1.00
H2       0.65508    0.65190    0.94250   1.00
H2       0.63115    0.63769    0.98766   1.00
C2       0.75149    0.74790    0.89605   1.00
C3       0.71679    0.75774    0.91597   1.00
O2       0.68143    0.75719    0.89674   1.00
C3       0.78556    0.74077    0.91826   1.00
H1       0.81282    0.73417    0.90385   1.00
C3a      0.71663    0.75922    0.95713   1.00
H1       0.68933    0.76460    0.97202   1.00
C3b      0.78500    0.74105    0.95922   1.00
C4       0.75035    0.75023    0.97900   1.00
O_3      0.73786    0.68004    1.02167   1.00
C5       0.66981    0.79552    0.88720   1.00
H2       0.66673    0.81394    0.91391   1.00
C5       0.63026    0.79248    0.86666   1.00
H2       0.69132    0.80959    0.86726   1.00
H2       0.60721    0.78865    0.88923   1.00
H2       0.63055    0.76519    0.84899   1.00
C5       0.62119    0.82809    0.84069   1.00
H2       0.62407    0.85529    0.85811   1.00
H2       0.59096    0.82636    0.82891   1.00
H2       0.64119    0.82946    0.81494   1.00
C5       0.69517    0.63579    0.99020   1.00
H2       0.69852    0.61209    1.01218   1.00
H2       0.72015    0.63316    0.96955   1.00
C5       0.65631    0.63170    0.96803   1.00
H2       0.65320    0.60149    0.95666   1.00
C5       0.86739    1.13227    0.79850   1.00
H2       0.86851    1.14755    0.76995   1.00
H2       0.89184    1.11099    0.79813   1.00
C5       0.87305    1.16219    0.83185   1.00
H2       0.90455    1.16890    0.83610   1.00
H2       0.86089    1.15040    0.85956   1.00
O_3      0.73455    0.98000    0.81905   1.00
C4       0.74996    1.02100    0.74956   1.00
C3c      0.78418    1.04243    0.75656   1.00
H1       0.81129    1.02725    0.76199   1.00
C3d      0.71506    1.04135    0.74199   1.00
C3       0.78395    1.08354    0.75723   1.00
O2       0.81929    1.10248    0.75951   1.00
C3       0.71457    1.08227    0.74337   1.00
H1       0.68684    1.09657    0.73876   1.00
C2       0.74882    1.10439    0.75083   1.00
C5       0.69440    0.97879    0.82820   1.00
H2       0.68367    0.94838    0.83247   1.00
H2       0.67660    0.99266    0.80472   1.00
C5       0.68856    1.00122    0.86600   1.00
H2       0.70029    1.03129    0.86208   1.00
H2       0.70617    0.98691    0.88930   1.00
C5       0.64530    1.00254    0.87740   1.00
H2       0.63334    0.97260    0.88109   1.00
H2       0.62790    1.01803    0.85478   1.00
H2       0.64171    1.01830    0.90553   1.00
C5       0.67489    1.01105    0.69841   1.00
C5       0.82826    1.11070    0.79894   1.00
H2       0.69830    0.99088    0.68850   1.00
H2       0.67462    1.03712    0.67891   1.00
H2       0.83083    1.08300    0.81586   1.00
H2       0.80539    1.12895    0.81342   1.00
H2       0.85848    1.19055    0.82490   1.00
H2       0.65190    0.94250    0.65508   1.00
H2       0.63769    0.98766    0.63115   1.00
C2       0.74790    0.89605    0.75149   1.00
C3       0.75774    0.91597    0.71679   1.00
O2       0.75719    0.89674    0.68143   1.00
C3       0.74077    0.91826    0.78556   1.00
H1       0.73417    0.90385    0.81282   1.00
C3a      0.75922    0.95713    0.71663   1.00
H1       0.76460    0.97202    0.68933   1.00
C3b      0.74105    0.95922    0.78500   1.00
C4       0.75023    0.97900    0.75035   1.00
O_3      0.68004    1.02167    0.73786   1.00
C5       0.79552    0.88720    0.66981   1.00
H2       0.81394    0.91391    0.66673   1.00
C5       0.79248    0.86666    0.63026   1.00
H2       0.80959    0.86726    0.69132   1.00
H2       0.78865    0.88923    0.60721   1.00
H2       0.76519    0.84899    0.63055   1.00
C5       0.82809    0.84069    0.62119   1.00
H2       0.85529    0.85811    0.62407   1.00
H2       0.82636    0.82891    0.59096   1.00
H2       0.82946    0.81494    0.64119   1.00
C5       0.63579    0.99020    0.69517   1.00
H2       0.61209    1.01218    0.69852   1.00
H2       0.63316    0.96955    0.72015   1.00
C5       0.63170    0.96803    0.65631   1.00
H2       0.60149    0.95666    0.65320   1.00
C5       0.36773    0.79850    0.63261   1.00
H2       0.35245    0.76995    0.63149   1.00
H2       0.38901    0.79813    0.60816   1.00
C5       0.33781    0.83185    0.62695   1.00
H2       0.33110    0.83610    0.59545   1.00
H2       0.34960    0.85956    0.63911   1.00
O_3      0.52000    0.81905    0.76545   1.00
C4       0.47900    0.74956    0.75004   1.00
C3c      0.45757    0.75656    0.71582   1.00
H1       0.47275    0.76199    0.68871   1.00
C3d      0.45865    0.74199    0.78494   1.00
C3       0.41646    0.75723    0.71605   1.00
O2       0.39752    0.75951    0.68071   1.00
C3       0.41773    0.74337    0.78543   1.00
H1       0.40343    0.73876    0.81316   1.00
C2       0.39561    0.75083    0.75118   1.00
C5       0.52121    0.82820    0.80560   1.00
H2       0.55162    0.83247    0.81633   1.00
H2       0.50734    0.80472    0.82340   1.00
C5       0.49878    0.86600    0.81144   1.00
H2       0.46871    0.86208    0.79971   1.00
H2       0.51309    0.88930    0.79383   1.00
C5       0.49746    0.87740    0.85470   1.00
H2       0.52740    0.88109    0.86666   1.00
H2       0.48197    0.85478    0.87210   1.00
H2       0.48170    0.90553    0.85829   1.00
C5       0.48895    0.69841    0.82511   1.00
C5       0.38930    0.79894    0.67174   1.00
H2       0.50912    0.68850    0.80170   1.00
H2       0.46288    0.67891    0.82538   1.00
H2       0.41700    0.81586    0.66917   1.00
H2       0.37105    0.81342    0.69461   1.00
H2       0.30945    0.82490    0.64152   1.00
H2       0.55750    0.65508    0.84810   1.00
H2       0.51234    0.63115    0.86231   1.00
C2       0.60395    0.75149    0.75210   1.00
C3       0.58403    0.71679    0.74226   1.00
O2       0.60326    0.68143    0.74281   1.00
C3       0.58174    0.78556    0.75923   1.00
H1       0.59615    0.81282    0.76583   1.00
C3a      0.54287    0.71663    0.74078   1.00
H1       0.52798    0.68933    0.73540   1.00
C3b      0.54078    0.78500    0.75895   1.00
C4       0.52100    0.75035    0.74977   1.00
O_3      0.47833    0.73786    0.81996   1.00
C5       0.61280    0.66981    0.70448   1.00
H2       0.58609    0.66673    0.68606   1.00
C5       0.63334    0.63026    0.70752   1.00
H2       0.63274    0.69132    0.69041   1.00
H2       0.61077    0.60721    0.71135   1.00
H2       0.65101    0.63055    0.73481   1.00
C5       0.65931    0.62119    0.67191   1.00
H2       0.64189    0.62407    0.64471   1.00
H2       0.67109    0.59096    0.67364   1.00
H2       0.68506    0.64119    0.67054   1.00
C5       0.50980    0.69517    0.86421   1.00
H2       0.48782    0.69852    0.88791   1.00
H2       0.53045    0.72015    0.86684   1.00
C5       0.53197    0.65631    0.86830   1.00
H2       0.54334    0.65320    0.89851   1.00
C5       1.13227    0.79850    0.86739   1.00
H2       1.14755    0.76995    0.86851   1.00
H2       1.11099    0.79813    0.89184   1.00
C5       1.16219    0.83185    0.87305   1.00
H2       1.16890    0.83610    0.90455   1.00
H2       1.15040    0.85956    0.86089   1.00
O_3      0.98000    0.81905    0.73455   1.00
C4       1.02100    0.74956    0.74996   1.00
C3c      1.04243    0.75656    0.78418   1.00
H1       1.02725    0.76199    0.81129   1.00
C3d      1.04135    0.74199    0.71506   1.00
C3       1.08354    0.75723    0.78395   1.00
O2       1.10248    0.75951    0.81929   1.00
C3       1.08227    0.74337    0.71457   1.00
H1       1.09657    0.73876    0.68684   1.00
C2       1.10439    0.75083    0.74882   1.00
C5       0.97879    0.82820    0.69440   1.00
H2       0.94838    0.83247    0.68367   1.00
H2       0.99266    0.80472    0.67660   1.00
C5       1.00122    0.86600    0.68856   1.00
H2       1.03129    0.86208    0.70029   1.00
H2       0.98691    0.88930    0.70617   1.00
C5       1.00254    0.87740    0.64530   1.00
H2       0.97260    0.88109    0.63334   1.00
H2       1.01803    0.85478    0.62790   1.00
H2       1.01830    0.90553    0.64171   1.00
C5       1.01105    0.69841    0.67489   1.00
C5       1.11070    0.79894    0.82826   1.00
H2       0.99088    0.68850    0.69830   1.00
H2       1.03712    0.67891    0.67462   1.00
H2       1.08300    0.81586    0.83083   1.00
H2       1.12895    0.81342    0.80539   1.00
H2       1.19055    0.82490    0.85848   1.00
H2       0.94250    0.65508    0.65190   1.00
H2       0.98766    0.63115    0.63769   1.00
C2       0.89605    0.75149    0.74790   1.00
C3       0.91597    0.71679    0.75774   1.00
O2       0.89674    0.68143    0.75719   1.00
C3       0.91826    0.78556    0.74077   1.00
H1       0.90385    0.81282    0.73417   1.00
C3a      0.95713    0.71663    0.75922   1.00
H1       0.97202    0.68933    0.76460   1.00
C3b      0.95922    0.78500    0.74105   1.00
C4       0.97900    0.75035    0.75023   1.00
O_3      1.02167    0.73786    0.68004   1.00
C5       0.88720    0.66981    0.79552   1.00
H2       0.91391    0.66673    0.81394   1.00
C5       0.86666    0.63026    0.79248   1.00
H2       0.86726    0.69132    0.80959   1.00
H2       0.88923    0.60721    0.78865   1.00
H2       0.84899    0.63055    0.76519   1.00
C5       0.84069    0.62119    0.82809   1.00
H2       0.85811    0.62407    0.85529   1.00
H2       0.82891    0.59096    0.82636   1.00
H2       0.81494    0.64119    0.82946   1.00
C5       0.99020    0.69517    0.63579   1.00
H2       1.01218    0.69852    0.61209   1.00
H2       0.96955    0.72015    0.63316   1.00
C5       0.96803    0.65631    0.63170   1.00
H2       0.95666    0.65320    0.60149   1.00
C5       0.63261    0.36773    0.79850   1.00
H2       0.63149    0.35245    0.76995   1.00
H2       0.60816    0.38901    0.79813   1.00
C5       0.62695    0.33781    0.83185   1.00
H2       0.59545    0.33110    0.83610   1.00
H2       0.63911    0.34960    0.85956   1.00
O_3      0.76545    0.52000    0.81905   1.00
C4       0.75004    0.47900    0.74956   1.00
C3c      0.71582    0.45757    0.75656   1.00
H1       0.68871    0.47275    0.76199   1.00
C3d      0.78494    0.45865    0.74199   1.00
C3       0.71605    0.41646    0.75723   1.00
O2       0.68071    0.39752    0.75951   1.00
C3       0.78543    0.41773    0.74337   1.00
H1       0.81316    0.40343    0.73876   1.00
C2       0.75118    0.39561    0.75083   1.00
C5       0.80560    0.52121    0.82820   1.00
H2       0.81633    0.55162    0.83247   1.00
H2       0.82340    0.50734    0.80472   1.00
C5       0.81144    0.49878    0.86600   1.00
H2       0.79971    0.46871    0.86208   1.00
H2       0.79383    0.51309    0.88930   1.00
C5       0.85470    0.49746    0.87740   1.00
H2       0.86666    0.52740    0.88109   1.00
H2       0.87210    0.48197    0.85478   1.00
H2       0.85829    0.48170    0.90553   1.00
C5       0.82511    0.48895    0.69841   1.00
C5       0.67174    0.38930    0.79894   1.00
H2       0.80170    0.50912    0.68850   1.00
H2       0.82538    0.46288    0.67891   1.00
H2       0.66917    0.41700    0.81586   1.00
H2       0.69461    0.37105    0.81342   1.00
H2       0.64152    0.30945    0.82490   1.00
H2       0.84810    0.55750    0.65508   1.00
H2       0.86231    0.51234    0.63115   1.00
C2       0.75210    0.60395    0.75149   1.00
C3       0.74226    0.58403    0.71679   1.00
O2       0.74281    0.60326    0.68143   1.00
C3       0.75923    0.58174    0.78556   1.00
H1       0.76583    0.59615    0.81282   1.00
C3a      0.74078    0.54287    0.71663   1.00
H1       0.73540    0.52798    0.68933   1.00
C3b      0.75895    0.54078    0.78500   1.00
C4       0.74977    0.52100    0.75035   1.00
O_3      0.81996    0.47833    0.73786   1.00
C5       0.70448    0.61280    0.66981   1.00
H2       0.68606    0.58609    0.66673   1.00
C5       0.70752    0.63334    0.63026   1.00
H2       0.69041    0.63274    0.69132   1.00
H2       0.71135    0.61077    0.60721   1.00
H2       0.73481    0.65101    0.63055   1.00
C5       0.67191    0.65931    0.62119   1.00
H2       0.64471    0.64189    0.62407   1.00
H2       0.67364    0.67109    0.59096   1.00
H2       0.67054    0.68506    0.64119   1.00
C5       0.86421    0.50980    0.69517   1.00
H2       0.88791    0.48782    0.69852   1.00
H2       0.86684    0.53045    0.72015   1.00
C5       0.86830    0.53197    0.65631   1.00
H2       0.89851    0.54334    0.65320   1.00
C5       0.79850    0.63261    0.36773   1.00
H2       0.76995    0.63149    0.35245   1.00
H2       0.79813    0.60816    0.38901   1.00
C5       0.83185    0.62695    0.33781   1.00
H2       0.83610    0.59545    0.33110   1.00
H2       0.85956    0.63911    0.34960   1.00
O_3      0.81905    0.76545    0.52000   1.00
C4       0.74956    0.75004    0.47900   1.00
C3c      0.75656    0.71582    0.45757   1.00
H1       0.76199    0.68871    0.47275   1.00
C3d      0.74199    0.78494    0.45865   1.00
C3       0.75723    0.71605    0.41646   1.00
O2       0.75951    0.68071    0.39752   1.00
C3       0.74337    0.78543    0.41773   1.00
H1       0.73876    0.81316    0.40343   1.00
C2       0.75083    0.75118    0.39561   1.00
C5       0.82820    0.80560    0.52121   1.00
H2       0.83247    0.81633    0.55162   1.00
H2       0.80472    0.82340    0.50734   1.00
C5       0.86600    0.81144    0.49878   1.00
H2       0.86208    0.79971    0.46871   1.00
H2       0.88930    0.79383    0.51309   1.00
C5       0.87740    0.85470    0.49746   1.00
H2       0.88109    0.86666    0.52740   1.00
H2       0.85478    0.87210    0.48197   1.00
H2       0.90553    0.85829    0.48170   1.00
C5       0.69841    0.82511    0.48895   1.00
C5       0.79894    0.67174    0.38930   1.00
H2       0.68850    0.80170    0.50912   1.00
H2       0.67891    0.82538    0.46288   1.00
H2       0.81586    0.66917    0.41700   1.00
H2       0.81342    0.69461    0.37105   1.00
H2       0.82490    0.64152    0.30945   1.00
H2       0.65508    0.84810    0.55750   1.00
H2       0.63115    0.86231    0.51234   1.00
C2       0.75149    0.75210    0.60395   1.00
C3       0.71679    0.74226    0.58403   1.00
O2       0.68143    0.74281    0.60326   1.00
C3       0.78556    0.75923    0.58174   1.00
H1       0.81282    0.76583    0.59615   1.00
C3a      0.71663    0.74078    0.54287   1.00
H1       0.68933    0.73540    0.52798   1.00
C3b      0.78500    0.75895    0.54078   1.00
C4       0.75035    0.74977    0.52100   1.00
O_3      0.73786    0.81996    0.47833   1.00
C5       0.66981    0.70448    0.61280   1.00
H2       0.66673    0.68606    0.58609   1.00
C5       0.63026    0.70752    0.63334   1.00
H2       0.69132    0.69041    0.63274   1.00
H2       0.60721    0.71135    0.61077   1.00
H2       0.63055    0.73481    0.65101   1.00
C5       0.62119    0.67191    0.65931   1.00
H2       0.62407    0.64471    0.64189   1.00
H2       0.59096    0.67364    0.67109   1.00
H2       0.64119    0.67054    0.68506   1.00
C5       0.69517    0.86421    0.50980   1.00
H2       0.69852    0.88791    0.48782   1.00
H2       0.72015    0.86684    0.53045   1.00
C5       0.65631    0.86830    0.53197   1.00
H2       0.65320    0.89851    0.54334   1.00
C5       0.29850    0.36739    1.13227   1.00
H2       0.26995    0.36851    1.14755   1.00
H2       0.29813    0.39184    1.11099   1.00
C5       0.33185    0.37305    1.16219   1.00
H2       0.33610    0.40455    1.16890   1.00
H2       0.35956    0.36089    1.15040   1.00
O_3      0.31905    0.23455    0.98000   1.00
C4       0.24956    0.24996    1.02100   1.00
C3c      0.25656    0.28418    1.04243   1.00
H1       0.26199    0.31129    1.02725   1.00
C3d      0.24199    0.21506    1.04135   1.00
C3       0.25723    0.28395    1.08354   1.00
O2       0.25951    0.31929    1.10248   1.00
C3       0.24337    0.21457    1.08227   1.00
H1       0.23876    0.18684    1.09657   1.00
C2       0.25083    0.24882    1.10439   1.00
C5       0.32820    0.19440    0.97879   1.00
H2       0.33247    0.18367    0.94838   1.00
H2       0.30472    0.17660    0.99266   1.00
C5       0.36600    0.18856    1.00122   1.00
H2       0.36208    0.20029    1.03129   1.00
H2       0.38930    0.20617    0.98691   1.00
C5       0.37740    0.14530    1.00254   1.00
H2       0.38109    0.13334    0.97260   1.00
H2       0.35478    0.12790    1.01803   1.00
H2       0.40553    0.14171    1.01830   1.00
C5       0.19841    0.17489    1.01105   1.00
C5       0.29894    0.32826    1.11070   1.00
H2       0.18850    0.19830    0.99088   1.00
H2       0.17891    0.17462    1.03712   1.00
H2       0.31586    0.33083    1.08300   1.00
H2       0.31342    0.30539    1.12895   1.00
H2       0.32490    0.35848    1.19055   1.00
H2       0.15508    0.15190    0.94250   1.00
H2       0.13115    0.13769    0.98766   1.00
C2       0.25149    0.24790    0.89605   1.00
C3       0.21679    0.25774    0.91597   1.00
O2       0.18143    0.25719    0.89674   1.00
C3       0.28556    0.24077    0.91826   1.00
H1       0.31282    0.23417    0.90385   1.00
C3a      0.21663    0.25922    0.95713   1.00
H1       0.18933    0.26460    0.97202   1.00
C3b      0.28500    0.24105    0.95922   1.00
C4       0.25035    0.25023    0.97900   1.00
O_3      0.23786    0.18004    1.02167   1.00
C5       0.16981    0.29552    0.88720   1.00
H2       0.16673    0.31394    0.91391   1.00
C5       0.13026    0.29248    0.86666   1.00
H2       0.19132    0.30959    0.86726   1.00
H2       0.10721    0.28865    0.88923   1.00
H2       0.13055    0.26519    0.84899   1.00
C5       0.12119    0.32809    0.84069   1.00
H2       0.12407    0.35529    0.85811   1.00
H2       0.09096    0.32636    0.82891   1.00
H2       0.14119    0.32946    0.81494   1.00
C5       0.19517    0.13579    0.99020   1.00
H2       0.19852    0.11209    1.01218   1.00
H2       0.22015    0.13316    0.96955   1.00
C5       0.15631    0.13170    0.96803   1.00
H2       0.15320    0.10149    0.95666   1.00
C5       0.36739    0.63227    0.79850   1.00
H2       0.36851    0.64755    0.76995   1.00
H2       0.39184    0.61099    0.79813   1.00
C5       0.37305    0.66219    0.83185   1.00
H2       0.40455    0.66890    0.83610   1.00
H2       0.36089    0.65040    0.85956   1.00
O_3      0.23455    0.48000    0.81905   1.00
C4       0.24996    0.52100    0.74956   1.00
C3c      0.28418    0.54243    0.75656   1.00
H1       0.31129    0.52725    0.76199   1.00
C3d      0.21506    0.54135    0.74199   1.00
C3       0.28395    0.58354    0.75723   1.00
O2       0.31929    0.60248    0.75951   1.00
C3       0.21457    0.58227    0.74337   1.00
H1       0.18684    0.59657    0.73876   1.00
C2       0.24882    0.60439    0.75083   1.00
C5       0.19440    0.47879    0.82820   1.00
H2       0.18367    0.44838    0.83247   1.00
H2       0.17660    0.49266    0.80472   1.00
C5       0.18856    0.50122    0.86600   1.00
H2       0.20029    0.53129    0.86208   1.00
H2       0.20617    0.48691    0.88930   1.00
C5       0.14530    0.50254    0.87740   1.00
H2       0.13334    0.47260    0.88109   1.00
H2       0.12790    0.51803    0.85478   1.00
H2       0.14171    0.51830    0.90553   1.00
C5       0.17489    0.51105    0.69841   1.00
C5       0.32826    0.61070    0.79894   1.00
H2       0.19830    0.49088    0.68850   1.00
H2       0.17462    0.53712    0.67891   1.00
H2       0.33083    0.58300    0.81586   1.00
H2       0.30539    0.62895    0.81342   1.00
H2       0.35848    0.69055    0.82490   1.00
H2       0.15190    0.44250    0.65508   1.00
H2       0.13769    0.48766    0.63115   1.00
C2       0.24790    0.39605    0.75149   1.00
C3       0.25774    0.41597    0.71679   1.00
O2       0.25719    0.39674    0.68143   1.00
C3       0.24077    0.41826    0.78556   1.00
H1       0.23417    0.40385    0.81282   1.00
C3a      0.25922    0.45713    0.71663   1.00
H1       0.26460    0.47202    0.68933   1.00
C3b      0.24105    0.45922    0.78500   1.00
C4       0.25023    0.47900    0.75035   1.00
O_3      0.18004    0.52167    0.73786   1.00
C5       0.29552    0.38720    0.66981   1.00
H2       0.31394    0.41391    0.66673   1.00
C5       0.29248    0.36666    0.63026   1.00
H2       0.30959    0.36726    0.69132   1.00
H2       0.28865    0.38923    0.60721   1.00
H2       0.26519    0.34899    0.63055   1.00
C5       0.32809    0.34069    0.62119   1.00
H2       0.35529    0.35811    0.62407   1.00
H2       0.32636    0.32891    0.59096   1.00
H2       0.32946    0.31494    0.64119   1.00
C5       0.13579    0.49020    0.69517   1.00
H2       0.11209    0.51218    0.69852   1.00
H2       0.13316    0.46955    0.72015   1.00
C5       0.13170    0.46803    0.65631   1.00
H2       0.10149    0.45666    0.65320   1.00
C5       -0.13227   0.29850    0.63261   1.00
H2       -0.14755   0.26995    0.63149   1.00
H2       -0.11099   0.29813    0.60816   1.00
C5       -0.16219   0.33185    0.62695   1.00
H2       -0.16890   0.33610    0.59545   1.00
H2       -0.15040   0.35956    0.63911   1.00
O_3      0.02000    0.31905    0.76545   1.00
C4       -0.02100   0.24956    0.75004   1.00
C3c      -0.04243   0.25656    0.71582   1.00
H1       -0.02725   0.26199    0.68871   1.00
C3d      -0.04135   0.24199    0.78494   1.00
C3       -0.08354   0.25723    0.71605   1.00
O2       -0.10248   0.25951    0.68071   1.00
C3       -0.08227   0.24337    0.78543   1.00
H1       -0.09657   0.23876    0.81316   1.00
C2       -0.10439   0.25083    0.75118   1.00
C5       0.02121    0.32820    0.80560   1.00
H2       0.05162    0.33247    0.81633   1.00
H2       0.00734    0.30472    0.82340   1.00
C5       -0.00122   0.36600    0.81144   1.00
H2       -0.03129   0.36208    0.79971   1.00
H2       0.01309    0.38930    0.79383   1.00
C5       -0.00254   0.37740    0.85470   1.00
H2       0.02740    0.38109    0.86666   1.00
H2       -0.01803   0.35478    0.87210   1.00
H2       -0.01830   0.40553    0.85829   1.00
C5       -0.01105   0.19841    0.82511   1.00
C5       -0.11070   0.29894    0.67174   1.00
H2       0.00912    0.18850    0.80170   1.00
H2       -0.03712   0.17891    0.82538   1.00
H2       -0.08300   0.31586    0.66917   1.00
H2       -0.12895   0.31342    0.69461   1.00
H2       -0.19055   0.32490    0.64152   1.00
H2       0.05750    0.15508    0.84810   1.00
H2       0.01234    0.13115    0.86231   1.00
C2       0.10395    0.25149    0.75210   1.00
C3       0.08403    0.21679    0.74226   1.00
O2       0.10326    0.18143    0.74281   1.00
C3       0.08174    0.28556    0.75923   1.00
H1       0.09615    0.31282    0.76583   1.00
C3a      0.04287    0.21663    0.74078   1.00
H1       0.02798    0.18933    0.73540   1.00
C3b      0.04078    0.28500    0.75895   1.00
C4       0.02100    0.25035    0.74977   1.00
O_3      -0.02167   0.23786    0.81996   1.00
C5       0.11280    0.16981    0.70448   1.00
H2       0.08609    0.16673    0.68606   1.00
C5       0.13334    0.13026    0.70752   1.00
H2       0.13274    0.19132    0.69041   1.00
H2       0.11077    0.10721    0.71135   1.00
H2       0.15101    0.13055    0.73481   1.00
C5       0.15931    0.12119    0.67191   1.00
H2       0.14189    0.12407    0.64471   1.00
H2       0.17109    0.09096    0.67364   1.00
H2       0.18506    0.14119    0.67054   1.00
C5       0.00980    0.19517    0.86421   1.00
H2       -0.01218   0.19852    0.88791   1.00
H2       0.03045    0.22015    0.86684   1.00
C5       0.03197    0.15631    0.86830   1.00
H2       0.04334    0.15320    0.89851   1.00
C5       0.63227    0.29850    0.86739   1.00
H2       0.64755    0.26995    0.86851   1.00
H2       0.61099    0.29813    0.89184   1.00
C5       0.66219    0.33185    0.87305   1.00
H2       0.66890    0.33610    0.90455   1.00
H2       0.65040    0.35956    0.86089   1.00
O_3      0.48000    0.31905    0.73455   1.00
C4       0.52100    0.24956    0.74996   1.00
C3c      0.54243    0.25656    0.78418   1.00
H1       0.52725    0.26199    0.81129   1.00
C3d      0.54135    0.24199    0.71506   1.00
C3       0.58354    0.25723    0.78395   1.00
O2       0.60248    0.25951    0.81929   1.00
C3       0.58227    0.24337    0.71457   1.00
H1       0.59657    0.23876    0.68684   1.00
C2       0.60439    0.25083    0.74882   1.00
C5       0.47879    0.32820    0.69440   1.00
H2       0.44838    0.33247    0.68367   1.00
H2       0.49266    0.30472    0.67660   1.00
C5       0.50122    0.36600    0.68856   1.00
H2       0.53129    0.36208    0.70029   1.00
H2       0.48691    0.38930    0.70617   1.00
C5       0.50254    0.37740    0.64530   1.00
H2       0.47260    0.38109    0.63334   1.00
H2       0.51803    0.35478    0.62790   1.00
H2       0.51830    0.40553    0.64171   1.00
C5       0.51105    0.19841    0.67489   1.00
C5       0.61070    0.29894    0.82826   1.00
H2       0.49088    0.18850    0.69830   1.00
H2       0.53712    0.17891    0.67462   1.00
H2       0.58300    0.31586    0.83083   1.00
H2       0.62895    0.31342    0.80539   1.00
H2       0.69055    0.32490    0.85848   1.00
H2       0.44250    0.15508    0.65190   1.00
H2       0.48766    0.13115    0.63769   1.00
C2       0.39605    0.25149    0.74790   1.00
C3       0.41597    0.21679    0.75774   1.00
O2       0.39674    0.18143    0.75719   1.00
C3       0.41826    0.28556    0.74077   1.00
H1       0.40385    0.31282    0.73417   1.00
C3a      0.45713    0.21663    0.75922   1.00
H1       0.47202    0.18933    0.76460   1.00
C3b      0.45922    0.28500    0.74105   1.00
C4       0.47900    0.25035    0.75023   1.00
O_3      0.52167    0.23786    0.68004   1.00
C5       0.38720    0.16981    0.79552   1.00
H2       0.41391    0.16673    0.81394   1.00
C5       0.36666    0.13026    0.79248   1.00
H2       0.36726    0.19132    0.80959   1.00
H2       0.38923    0.10721    0.78865   1.00
H2       0.34899    0.13055    0.76519   1.00
C5       0.34069    0.12119    0.82809   1.00
H2       0.35811    0.12407    0.85529   1.00
H2       0.32891    0.09096    0.82636   1.00
H2       0.31494    0.14119    0.82946   1.00
C5       0.49020    0.19517    0.63579   1.00
H2       0.51218    0.19852    0.61209   1.00
H2       0.46955    0.22015    0.63316   1.00
C5       0.46803    0.15631    0.63170   1.00
H2       0.45666    0.15320    0.60149   1.00
C5       0.13261    -0.13227   0.79850   1.00
H2       0.13149    -0.14755   0.76995   1.00
H2       0.10816    -0.11099   0.79813   1.00
C5       0.12695    -0.16219   0.83185   1.00
H2       0.09545    -0.16890   0.83610   1.00
H2       0.13911    -0.15040   0.85956   1.00
O_3      0.26545    0.02000    0.81905   1.00
C4       0.25004    -0.02100   0.74956   1.00
C3c      0.21582    -0.04243   0.75656   1.00
H1       0.18871    -0.02725   0.76199   1.00
C3d      0.28494    -0.04135   0.74199   1.00
C3       0.21605    -0.08354   0.75723   1.00
O2       0.18071    -0.10248   0.75951   1.00
C3       0.28543    -0.08227   0.74337   1.00
H1       0.31316    -0.09657   0.73876   1.00
C2       0.25118    -0.10439   0.75083   1.00
C5       0.30560    0.02121    0.82820   1.00
H2       0.31633    0.05162    0.83247   1.00
H2       0.32340    0.00734    0.80472   1.00
C5       0.31144    -0.00122   0.86600   1.00
H2       0.29971    -0.03129   0.86208   1.00
H2       0.29383    0.01309    0.88930   1.00
C5       0.35470    -0.00254   0.87740   1.00
H2       0.36666    0.02740    0.88109   1.00
H2       0.37210    -0.01803   0.85478   1.00
H2       0.35829    -0.01830   0.90553   1.00
C5       0.32511    -0.01105   0.69841   1.00
C5       0.17174    -0.11070   0.79894   1.00
H2       0.30170    0.00912    0.68850   1.00
H2       0.32538    -0.03712   0.67891   1.00
H2       0.16917    -0.08300   0.81586   1.00
H2       0.19461    -0.12895   0.81342   1.00
H2       0.14152    -0.19055   0.82490   1.00
H2       0.34810    0.05750    0.65508   1.00
H2       0.36231    0.01234    0.63115   1.00
C2       0.25210    0.10395    0.75149   1.00
C3       0.24226    0.08403    0.71679   1.00
O2       0.24281    0.10326    0.68143   1.00
C3       0.25923    0.08174    0.78556   1.00
H1       0.26583    0.09615    0.81282   1.00
C3a      0.24078    0.04287    0.71663   1.00
H1       0.23540    0.02798    0.68933   1.00
C3b      0.25895    0.04078    0.78500   1.00
C4       0.24977    0.02100    0.75035   1.00
O_3      0.31996    -0.02167   0.73786   1.00
C5       0.20448    0.11280    0.66981   1.00
H2       0.18606    0.08609    0.66673   1.00
C5       0.20752    0.13334    0.63026   1.00
H2       0.19041    0.13274    0.69132   1.00
H2       0.21135    0.11077    0.60721   1.00
H2       0.23481    0.15101    0.63055   1.00
C5       0.17191    0.15931    0.62119   1.00
H2       0.14471    0.14189    0.62407   1.00
H2       0.17364    0.17109    0.59096   1.00
H2       0.17054    0.18506    0.64119   1.00
C5       0.36421    0.00980    0.69517   1.00
H2       0.38791    -0.01218   0.69852   1.00
H2       0.36684    0.03045    0.72015   1.00
C5       0.36830    0.03197    0.65631   1.00
H2       0.39851    0.04334    0.65320   1.00
C5       0.29850    0.13261    0.36773   1.00
H2       0.26995    0.13149    0.35245   1.00
H2       0.29813    0.10816    0.38901   1.00
C5       0.33185    0.12695    0.33781   1.00
H2       0.33610    0.09545    0.33110   1.00
H2       0.35956    0.13911    0.34960   1.00
O_3      0.31905    0.26545    0.52000   1.00
C4       0.24956    0.25004    0.47900   1.00
C3c      0.25656    0.21582    0.45757   1.00
H1       0.26199    0.18871    0.47275   1.00
C3d      0.24199    0.28494    0.45865   1.00
C3       0.25723    0.21605    0.41646   1.00
O2       0.25951    0.18071    0.39752   1.00
C3       0.24337    0.28543    0.41773   1.00
H1       0.23876    0.31316    0.40343   1.00
C2       0.25083    0.25118    0.39561   1.00
C5       0.32820    0.30560    0.52121   1.00
H2       0.33247    0.31633    0.55162   1.00
H2       0.30472    0.32340    0.50734   1.00
C5       0.36600    0.31144    0.49878   1.00
H2       0.36208    0.29971    0.46871   1.00
H2       0.38930    0.29383    0.51309   1.00
C5       0.37740    0.35470    0.49746   1.00
H2       0.38109    0.36666    0.52740   1.00
H2       0.35478    0.37210    0.48197   1.00
H2       0.40553    0.35829    0.48170   1.00
C5       0.19841    0.32511    0.48895   1.00
C5       0.29894    0.17174    0.38930   1.00
H2       0.18850    0.30170    0.50912   1.00
H2       0.17891    0.32538    0.46288   1.00
H2       0.31586    0.16917    0.41700   1.00
H2       0.31342    0.19461    0.37105   1.00
H2       0.32490    0.14152    0.30945   1.00
H2       0.15508    0.34810    0.55750   1.00
H2       0.13115    0.36231    0.51234   1.00
C2       0.25149    0.25210    0.60395   1.00
C3       0.21679    0.24226    0.58403   1.00
O2       0.18143    0.24281    0.60326   1.00
C3       0.28556    0.25923    0.58174   1.00
H1       0.31282    0.26583    0.59615   1.00
C3a      0.21663    0.24078    0.54287   1.00
H1       0.18933    0.23540    0.52798   1.00
C3b      0.28500    0.25895    0.54078   1.00
C4       0.25035    0.24977    0.52100   1.00
O_3      0.23786    0.31996    0.47833   1.00
C5       0.16981    0.20448    0.61280   1.00
H2       0.16673    0.18606    0.58609   1.00
C5       0.13026    0.20752    0.63334   1.00
H2       0.19132    0.19041    0.63274   1.00
H2       0.10721    0.21135    0.61077   1.00
H2       0.13055    0.23481    0.65101   1.00
C5       0.12119    0.17191    0.65931   1.00
H2       0.12407    0.14471    0.64189   1.00
H2       0.09096    0.17364    0.67109   1.00
H2       0.14119    0.17054    0.68506   1.00
C5       0.19517    0.36421    0.50980   1.00
H2       0.19852    0.38791    0.48782   1.00
H2       0.22015    0.36684    0.53045   1.00
C5       0.15631    0.36830    0.53197   1.00
H2       0.15320    0.39851    0.54334   1.00
C5       0.29850    0.86739    0.63227   1.00
H2       0.26995    0.86851    0.64755   1.00
H2       0.29813    0.89184    0.61099   1.00
C5       0.33185    0.87305    0.66219   1.00
H2       0.33610    0.90455    0.66890   1.00
H2       0.35956    0.86089    0.65040   1.00
O_3      0.31905    0.73455    0.48000   1.00
C4       0.24956    0.74996    0.52100   1.00
C3c      0.25656    0.78418    0.54243   1.00
H1       0.26199    0.81129    0.52725   1.00
C3d      0.24199    0.71506    0.54135   1.00
C3       0.25723    0.78395    0.58354   1.00
O2       0.25951    0.81929    0.60248   1.00
C3       0.24337    0.71457    0.58227   1.00
H1       0.23876    0.68684    0.59657   1.00
C2       0.25083    0.74882    0.60439   1.00
C5       0.32820    0.69440    0.47879   1.00
H2       0.33247    0.68367    0.44838   1.00
H2       0.30472    0.67660    0.49266   1.00
C5       0.36600    0.68856    0.50122   1.00
H2       0.36208    0.70029    0.53129   1.00
H2       0.38930    0.70617    0.48691   1.00
C5       0.37740    0.64530    0.50254   1.00
H2       0.38109    0.63334    0.47260   1.00
H2       0.35478    0.62790    0.51803   1.00
H2       0.40553    0.64171    0.51830   1.00
C5       0.19841    0.67489    0.51105   1.00
C5       0.29894    0.82826    0.61070   1.00
H2       0.18850    0.69830    0.49088   1.00
H2       0.17891    0.67462    0.53712   1.00
H2       0.31586    0.83083    0.58300   1.00
H2       0.31342    0.80539    0.62895   1.00
H2       0.32490    0.85848    0.69055   1.00
H2       0.15508    0.65190    0.44250   1.00
H2       0.13115    0.63769    0.48766   1.00
C2       0.25149    0.74790    0.39605   1.00
C3       0.21679    0.75774    0.41597   1.00
O2       0.18143    0.75719    0.39674   1.00
C3       0.28556    0.74077    0.41826   1.00
H1       0.31282    0.73417    0.40385   1.00
C3a      0.21663    0.75922    0.45713   1.00
H1       0.18933    0.76460    0.47202   1.00
C3b      0.28500    0.74105    0.45922   1.00
C4       0.25035    0.75023    0.47900   1.00
O_3      0.23786    0.68004    0.52167   1.00
C5       0.16981    0.79552    0.38720   1.00
H2       0.16673    0.81394    0.41391   1.00
C5       0.13026    0.79248    0.36666   1.00
H2       0.19132    0.80959    0.36726   1.00
H2       0.10721    0.78865    0.38923   1.00
H2       0.13055    0.76519    0.34899   1.00
C5       0.12119    0.82809    0.34069   1.00
H2       0.12407    0.85529    0.35811   1.00
H2       0.09096    0.82636    0.32891   1.00
H2       0.14119    0.82946    0.31494   1.00
C5       0.19517    0.63579    0.49020   1.00
H2       0.19852    0.61209    0.51218   1.00
H2       0.22015    0.63316    0.46955   1.00
C5       0.15631    0.63170    0.46803   1.00
H2       0.15320    0.60149    0.45666   1.00
C5       0.36739    1.13227    0.29850   1.00
H2       0.36851    1.14755    0.26995   1.00
H2       0.39184    1.11099    0.29813   1.00
C5       0.37305    1.16219    0.33185   1.00
H2       0.40455    1.16890    0.33610   1.00
H2       0.36089    1.15040    0.35956   1.00
O_3      0.23455    0.98000    0.31905   1.00
C4       0.24996    1.02100    0.24956   1.00
C3c      0.28418    1.04243    0.25656   1.00
H1       0.31129    1.02725    0.26199   1.00
C3d      0.21506    1.04135    0.24199   1.00
C3       0.28395    1.08354    0.25723   1.00
O2       0.31929    1.10248    0.25951   1.00
C3       0.21457    1.08227    0.24337   1.00
H1       0.18684    1.09657    0.23876   1.00
C2       0.24882    1.10439    0.25083   1.00
C5       0.19440    0.97879    0.32820   1.00
H2       0.18367    0.94838    0.33247   1.00
H2       0.17660    0.99266    0.30472   1.00
C5       0.18856    1.00122    0.36600   1.00
H2       0.20029    1.03129    0.36208   1.00
H2       0.20617    0.98691    0.38930   1.00
C5       0.14530    1.00254    0.37740   1.00
H2       0.13334    0.97260    0.38109   1.00
H2       0.12790    1.01803    0.35478   1.00
H2       0.14171    1.01830    0.40553   1.00
C5       0.17489    1.01105    0.19841   1.00
C5       0.32826    1.11070    0.29894   1.00
H2       0.19830    0.99088    0.18850   1.00
H2       0.17462    1.03712    0.17891   1.00
H2       0.33083    1.08300    0.31586   1.00
H2       0.30539    1.12895    0.31342   1.00
H2       0.35848    1.19055    0.32490   1.00
H2       0.15190    0.94250    0.15508   1.00
H2       0.13769    0.98766    0.13115   1.00
C2       0.24790    0.89605    0.25149   1.00
C3       0.25774    0.91597    0.21679   1.00
O2       0.25719    0.89674    0.18143   1.00
C3       0.24077    0.91826    0.28556   1.00
H1       0.23417    0.90385    0.31282   1.00
C3a      0.25922    0.95713    0.21663   1.00
H1       0.26460    0.97202    0.18933   1.00
C3b      0.24105    0.95922    0.28500   1.00
C4       0.25023    0.97900    0.25035   1.00
O_3      0.18004    1.02167    0.23786   1.00
C5       0.29552    0.88720    0.16981   1.00
H2       0.31394    0.91391    0.16673   1.00
C5       0.29248    0.86666    0.13026   1.00
H2       0.30959    0.86726    0.19132   1.00
H2       0.28865    0.88923    0.10721   1.00
H2       0.26519    0.84899    0.13055   1.00
C5       0.32809    0.84069    0.12119   1.00
H2       0.35529    0.85811    0.12407   1.00
H2       0.32636    0.82891    0.09096   1.00
H2       0.32946    0.81494    0.14119   1.00
C5       0.13579    0.99020    0.19517   1.00
H2       0.11209    1.01218    0.19852   1.00
H2       0.13316    0.96955    0.22015   1.00
C5       0.13170    0.96803    0.15631   1.00
H2       0.10149    0.95666    0.15320   1.00
C5       -0.13227   0.79850    0.13261   1.00
H2       -0.14755   0.76995    0.13149   1.00
H2       -0.11099   0.79813    0.10816   1.00
C5       -0.16219   0.83185    0.12695   1.00
H2       -0.16890   0.83610    0.09545   1.00
H2       -0.15040   0.85956    0.13911   1.00
O_3      0.02000    0.81905    0.26545   1.00
C4       -0.02100   0.74956    0.25004   1.00
C3c      -0.04243   0.75656    0.21582   1.00
H1       -0.02725   0.76199    0.18871   1.00
C3d      -0.04135   0.74199    0.28494   1.00
C3       -0.08354   0.75723    0.21605   1.00
O2       -0.10248   0.75951    0.18071   1.00
C3       -0.08227   0.74337    0.28543   1.00
H1       -0.09657   0.73876    0.31316   1.00
C2       -0.10439   0.75083    0.25118   1.00
C5       0.02121    0.82820    0.30560   1.00
H2       0.05162    0.83247    0.31633   1.00
H2       0.00734    0.80472    0.32340   1.00
C5       -0.00122   0.86600    0.31144   1.00
H2       -0.03129   0.86208    0.29971   1.00
H2       0.01309    0.88930    0.29383   1.00
C5       -0.00254   0.87740    0.35470   1.00
H2       0.02740    0.88109    0.36666   1.00
H2       -0.01803   0.85478    0.37210   1.00
H2       -0.01830   0.90553    0.35829   1.00
C5       -0.01105   0.69841    0.32511   1.00
C5       -0.11070   0.79894    0.17174   1.00
H2       0.00912    0.68850    0.30170   1.00
H2       -0.03712   0.67891    0.32538   1.00
H2       -0.08300   0.81586    0.16917   1.00
H2       -0.12895   0.81342    0.19461   1.00
H2       -0.19055   0.82490    0.14152   1.00
H2       0.05750    0.65508    0.34810   1.00
H2       0.01234    0.63115    0.36231   1.00
C2       0.10395    0.75149    0.25210   1.00
C3       0.08403    0.71679    0.24226   1.00
O2       0.10326    0.68143    0.24281   1.00
C3       0.08174    0.78556    0.25923   1.00
H1       0.09615    0.81282    0.26583   1.00
C3a      0.04287    0.71663    0.24078   1.00
H1       0.02798    0.68933    0.23540   1.00
C3b      0.04078    0.78500    0.25895   1.00
C4       0.02100    0.75035    0.24977   1.00
O_3      -0.02167   0.73786    0.31996   1.00
C5       0.11280    0.66981    0.20448   1.00
H2       0.08609    0.66673    0.18606   1.00
C5       0.13334    0.63026    0.20752   1.00
H2       0.13274    0.69132    0.19041   1.00
H2       0.11077    0.60721    0.21135   1.00
H2       0.15101    0.63055    0.23481   1.00
C5       0.15931    0.62119    0.17191   1.00
H2       0.14189    0.62407    0.14471   1.00
H2       0.17109    0.59096    0.17364   1.00
H2       0.18506    0.64119    0.17054   1.00
C5       0.00980    0.69517    0.36421   1.00
H2       -0.01218   0.69852    0.38791   1.00
H2       0.03045    0.72015    0.36684   1.00
C5       0.03197    0.65631    0.36830   1.00
H2       0.04334    0.65320    0.39851   1.00
C5       0.63227    0.79850    0.36739   1.00
H2       0.64755    0.76995    0.36851   1.00
H2       0.61099    0.79813    0.39184   1.00
C5       0.66219    0.83185    0.37305   1.00
H2       0.66890    0.83610    0.40455   1.00
H2       0.65040    0.85956    0.36089   1.00
O_3      0.48000    0.81905    0.23455   1.00
C4       0.52100    0.74956    0.24996   1.00
C3c      0.54243    0.75656    0.28418   1.00
H1       0.52725    0.76199    0.31129   1.00
C3d      0.54135    0.74199    0.21506   1.00
C3       0.58354    0.75723    0.28395   1.00
O2       0.60248    0.75951    0.31929   1.00
C3       0.58227    0.74337    0.21457   1.00
H1       0.59657    0.73876    0.18684   1.00
C2       0.60439    0.75083    0.24882   1.00
C5       0.47879    0.82820    0.19440   1.00
H2       0.44838    0.83247    0.18367   1.00
H2       0.49266    0.80472    0.17660   1.00
C5       0.50122    0.86600    0.18856   1.00
H2       0.53129    0.86208    0.20029   1.00
H2       0.48691    0.88930    0.20617   1.00
C5       0.50254    0.87740    0.14530   1.00
H2       0.47260    0.88109    0.13334   1.00
H2       0.51803    0.85478    0.12790   1.00
H2       0.51830    0.90553    0.14171   1.00
C5       0.51105    0.69841    0.17489   1.00
C5       0.61070    0.79894    0.32826   1.00
H2       0.49088    0.68850    0.19830   1.00
H2       0.53712    0.67891    0.17462   1.00
H2       0.58300    0.81586    0.33083   1.00
H2       0.62895    0.81342    0.30539   1.00
H2       0.69055    0.82490    0.35848   1.00
H2       0.44250    0.65508    0.15190   1.00
H2       0.48766    0.63115    0.13769   1.00
C2       0.39605    0.75149    0.24790   1.00
C3       0.41597    0.71679    0.25774   1.00
O2       0.39674    0.68143    0.25719   1.00
C3       0.41826    0.78556    0.24077   1.00
H1       0.40385    0.81282    0.23417   1.00
C3a      0.45713    0.71663    0.25922   1.00
H1       0.47202    0.68933    0.26460   1.00
C3b      0.45922    0.78500    0.24105   1.00
C4       0.47900    0.75035    0.25023   1.00
O_3      0.52167    0.73786    0.18004   1.00
C5       0.38720    0.66981    0.29552   1.00
H2       0.41391    0.66673    0.31394   1.00
C5       0.36666    0.63026    0.29248   1.00
H2       0.36726    0.69132    0.30959   1.00
H2       0.38923    0.60721    0.28865   1.00
H2       0.34899    0.63055    0.26519   1.00
C5       0.34069    0.62119    0.32809   1.00
H2       0.35811    0.62407    0.35529   1.00
H2       0.32891    0.59096    0.32636   1.00
H2       0.31494    0.64119    0.32946   1.00
C5       0.49020    0.69517    0.13579   1.00
H2       0.51218    0.69852    0.11209   1.00
H2       0.46955    0.72015    0.13316   1.00
C5       0.46803    0.65631    0.13170   1.00
H2       0.45666    0.65320    0.10149   1.00
C5       0.13261    0.36773    0.29850   1.00
H2       0.13149    0.35245    0.26995   1.00
H2       0.10816    0.38901    0.29813   1.00
C5       0.12695    0.33781    0.33185   1.00
H2       0.09545    0.33110    0.33610   1.00
H2       0.13911    0.34960    0.35956   1.00
O_3      0.26545    0.52000    0.31905   1.00
C4       0.25004    0.47900    0.24956   1.00
C3c      0.21582    0.45757    0.25656   1.00
H1       0.18871    0.47275    0.26199   1.00
C3d      0.28494    0.45865    0.24199   1.00
C3       0.21605    0.41646    0.25723   1.00
O2       0.18071    0.39752    0.25951   1.00
C3       0.28543    0.41773    0.24337   1.00
H1       0.31316    0.40343    0.23876   1.00
C2       0.25118    0.39561    0.25083   1.00
C5       0.30560    0.52121    0.32820   1.00
H2       0.31633    0.55162    0.33247   1.00
H2       0.32340    0.50734    0.30472   1.00
C5       0.31144    0.49878    0.36600   1.00
H2       0.29971    0.46871    0.36208   1.00
H2       0.29383    0.51309    0.38930   1.00
C5       0.35470    0.49746    0.37740   1.00
H2       0.36666    0.52740    0.38109   1.00
H2       0.37210    0.48197    0.35478   1.00
H2       0.35829    0.48170    0.40553   1.00
C5       0.32511    0.48895    0.19841   1.00
C5       0.17174    0.38930    0.29894   1.00
H2       0.30170    0.50912    0.18850   1.00
H2       0.32538    0.46288    0.17891   1.00
H2       0.16917    0.41700    0.31586   1.00
H2       0.19461    0.37105    0.31342   1.00
H2       0.14152    0.30945    0.32490   1.00
H2       0.34810    0.55750    0.15508   1.00
H2       0.36231    0.51234    0.13115   1.00
C2       0.25210    0.60395    0.25149   1.00
C3       0.24226    0.58403    0.21679   1.00
O2       0.24281    0.60326    0.18143   1.00
C3       0.25923    0.58174    0.28556   1.00
H1       0.26583    0.59615    0.31282   1.00
C3a      0.24078    0.54287    0.21663   1.00
H1       0.23540    0.52798    0.18933   1.00
C3b      0.25895    0.54078    0.28500   1.00
C4       0.24977    0.52100    0.25035   1.00
O_3      0.31996    0.47833    0.23786   1.00
C5       0.20448    0.61280    0.16981   1.00
H2       0.18606    0.58609    0.16673   1.00
C5       0.20752    0.63334    0.13026   1.00
H2       0.19041    0.63274    0.19132   1.00
H2       0.21135    0.61077    0.10721   1.00
H2       0.23481    0.65101    0.13055   1.00
C5       0.17191    0.65931    0.12119   1.00
H2       0.14471    0.64189    0.12407   1.00
H2       0.17364    0.67109    0.09096   1.00
H2       0.17054    0.68506    0.14119   1.00
C5       0.36421    0.50980    0.19517   1.00
H2       0.38791    0.48782    0.19852   1.00
H2       0.36684    0.53045    0.22015   1.00
C5       0.36830    0.53197    0.15631   1.00
H2       0.39851    0.54334    0.15320   1.00
C5       0.29850    0.63261    -0.13227   1.00
H2       0.26995    0.63149    -0.14755   1.00
H2       0.29813    0.60816    -0.11099   1.00
C5       0.33185    0.62695    -0.16219   1.00
H2       0.33610    0.59545    -0.16890   1.00
H2       0.35956    0.63911    -0.15040   1.00
O_3      0.31905    0.76545    0.02000   1.00
C4       0.24956    0.75004    -0.02100   1.00
C3c      0.25656    0.71582    -0.04243   1.00
H1       0.26199    0.68871    -0.02725   1.00
C3d      0.24199    0.78494    -0.04135   1.00
C3       0.25723    0.71605    -0.08354   1.00
O2       0.25951    0.68071    -0.10248   1.00
C3       0.24337    0.78543    -0.08227   1.00
H1       0.23876    0.81316    -0.09657   1.00
C2       0.25083    0.75118    -0.10439   1.00
C5       0.32820    0.80560    0.02121   1.00
H2       0.33247    0.81633    0.05162   1.00
H2       0.30472    0.82340    0.00734   1.00
C5       0.36600    0.81144    -0.00122   1.00
H2       0.36208    0.79971    -0.03129   1.00
H2       0.38930    0.79383    0.01309   1.00
C5       0.37740    0.85470    -0.00254   1.00
H2       0.38109    0.86666    0.02740   1.00
H2       0.35478    0.87210    -0.01803   1.00
H2       0.40553    0.85829    -0.01830   1.00
C5       0.19841    0.82511    -0.01105   1.00
C5       0.29894    0.67174    -0.11070   1.00
H2       0.18850    0.80170    0.00912   1.00
H2       0.17891    0.82538    -0.03712   1.00
H2       0.31586    0.66917    -0.08300   1.00
H2       0.31342    0.69461    -0.12895   1.00
H2       0.32490    0.64152    -0.19055   1.00
H2       0.15508    0.84810    0.05750   1.00
H2       0.13115    0.86231    0.01234   1.00
C2       0.25149    0.75210    0.10395   1.00
C3       0.21679    0.74226    0.08403   1.00
O2       0.18143    0.74281    0.10326   1.00
C3       0.28556    0.75923    0.08174   1.00
H1       0.31282    0.76583    0.09615   1.00
C3a      0.21663    0.74078    0.04287   1.00
H1       0.18933    0.73540    0.02798   1.00
C3b      0.28500    0.75895    0.04078   1.00
C4       0.25035    0.74977    0.02100   1.00
O_3      0.23786    0.81996    -0.02167   1.00
C5       0.16981    0.70448    0.11280   1.00
H2       0.16673    0.68606    0.08609   1.00
C5       0.13026    0.70752    0.13334   1.00
H2       0.19132    0.69041    0.13274   1.00
H2       0.10721    0.71135    0.11077   1.00
H2       0.13055    0.73481    0.15101   1.00
C5       0.12119    0.67191    0.15931   1.00
H2       0.12407    0.64471    0.14189   1.00
H2       0.09096    0.67364    0.17109   1.00
H2       0.14119    0.67054    0.18506   1.00
C5       0.19517    0.86421    0.00980   1.00
H2       0.19852    0.88791    -0.01218   1.00
H2       0.22015    0.86684    0.03045   1.00
C5       0.15631    0.86830    0.03197   1.00
H2       0.15320    0.89851    0.04334   1.00
C5       0.79850    0.36739    0.63227   1.00
H2       0.76995    0.36851    0.64755   1.00
H2       0.79813    0.39184    0.61099   1.00
C5       0.83185    0.37305    0.66219   1.00
H2       0.83610    0.40455    0.66890   1.00
H2       0.85956    0.36089    0.65040   1.00
O_3      0.81905    0.23455    0.48000   1.00
C4       0.74956    0.24996    0.52100   1.00
C3c      0.75656    0.28418    0.54243   1.00
H1       0.76199    0.31129    0.52725   1.00
C3d      0.74199    0.21506    0.54135   1.00
C3       0.75723    0.28395    0.58354   1.00
O2       0.75951    0.31929    0.60248   1.00
C3       0.74337    0.21457    0.58227   1.00
H1       0.73876    0.18684    0.59657   1.00
C2       0.75083    0.24882    0.60439   1.00
C5       0.82820    0.19440    0.47879   1.00
H2       0.83247    0.18367    0.44838   1.00
H2       0.80472    0.17660    0.49266   1.00
C5       0.86600    0.18856    0.50122   1.00
H2       0.86208    0.20029    0.53129   1.00
H2       0.88930    0.20617    0.48691   1.00
C5       0.87740    0.14530    0.50254   1.00
H2       0.88109    0.13334    0.47260   1.00
H2       0.85478    0.12790    0.51803   1.00
H2       0.90553    0.14171    0.51830   1.00
C5       0.69841    0.17489    0.51105   1.00
C5       0.79894    0.32826    0.61070   1.00
H2       0.68850    0.19830    0.49088   1.00
H2       0.67891    0.17462    0.53712   1.00
H2       0.81586    0.33083    0.58300   1.00
H2       0.81342    0.30539    0.62895   1.00
H2       0.82490    0.35848    0.69055   1.00
H2       0.65508    0.15190    0.44250   1.00
H2       0.63115    0.13769    0.48766   1.00
C2       0.75149    0.24790    0.39605   1.00
C3       0.71679    0.25774    0.41597   1.00
O2       0.68143    0.25719    0.39674   1.00
C3       0.78556    0.24077    0.41826   1.00
H1       0.81282    0.23417    0.40385   1.00
C3a      0.71663    0.25922    0.45713   1.00
H1       0.68933    0.26460    0.47202   1.00
C3b      0.78500    0.24105    0.45922   1.00
C4       0.75035    0.25023    0.47900   1.00
O_3      0.73786    0.18004    0.52167   1.00
C5       0.66981    0.29552    0.38720   1.00
H2       0.66673    0.31394    0.41391   1.00
C5       0.63026    0.29248    0.36666   1.00
H2       0.69132    0.30959    0.36726   1.00
H2       0.60721    0.28865    0.38923   1.00
H2       0.63055    0.26519    0.34899   1.00
C5       0.62119    0.32809    0.34069   1.00
H2       0.62407    0.35529    0.35811   1.00
H2       0.59096    0.32636    0.32891   1.00
H2       0.64119    0.32946    0.31494   1.00
C5       0.69517    0.13579    0.49020   1.00
H2       0.69852    0.11209    0.51218   1.00
H2       0.72015    0.13316    0.46955   1.00
C5       0.65631    0.13170    0.46803   1.00
H2       0.65320    0.10149    0.45666   1.00
C5       0.86739    0.63227    0.29850   1.00
H2       0.86851    0.64755    0.26995   1.00
H2       0.89184    0.61099    0.29813   1.00
C5       0.87305    0.66219    0.33185   1.00
H2       0.90455    0.66890    0.33610   1.00
H2       0.86089    0.65040    0.35956   1.00
O_3      0.73455    0.48000    0.31905   1.00
C4       0.74996    0.52100    0.24956   1.00
C3c      0.78418    0.54243    0.25656   1.00
H1       0.81129    0.52725    0.26199   1.00
C3d      0.71506    0.54135    0.24199   1.00
C3       0.78395    0.58354    0.25723   1.00
O2       0.81929    0.60248    0.25951   1.00
C3       0.71457    0.58227    0.24337   1.00
H1       0.68684    0.59657    0.23876   1.00
C2       0.74882    0.60439    0.25083   1.00
C5       0.69440    0.47879    0.32820   1.00
H2       0.68367    0.44838    0.33247   1.00
H2       0.67660    0.49266    0.30472   1.00
C5       0.68856    0.50122    0.36600   1.00
H2       0.70029    0.53129    0.36208   1.00
H2       0.70617    0.48691    0.38930   1.00
C5       0.64530    0.50254    0.37740   1.00
H2       0.63334    0.47260    0.38109   1.00
H2       0.62790    0.51803    0.35478   1.00
H2       0.64171    0.51830    0.40553   1.00
C5       0.67489    0.51105    0.19841   1.00
C5       0.82826    0.61070    0.29894   1.00
H2       0.69830    0.49088    0.18850   1.00
H2       0.67462    0.53712    0.17891   1.00
H2       0.83083    0.58300    0.31586   1.00
H2       0.80539    0.62895    0.31342   1.00
H2       0.85848    0.69055    0.32490   1.00
H2       0.65190    0.44250    0.15508   1.00
H2       0.63769    0.48766    0.13115   1.00
C2       0.74790    0.39605    0.25149   1.00
C3       0.75774    0.41597    0.21679   1.00
O2       0.75719    0.39674    0.18143   1.00
C3       0.74077    0.41826    0.28556   1.00
H1       0.73417    0.40385    0.31282   1.00
C3a      0.75922    0.45713    0.21663   1.00
H1       0.76460    0.47202    0.18933   1.00
C3b      0.74105    0.45922    0.28500   1.00
C4       0.75023    0.47900    0.25035   1.00
O_3      0.68004    0.52167    0.23786   1.00
C5       0.79552    0.38720    0.16981   1.00
H2       0.81394    0.41391    0.16673   1.00
C5       0.79248    0.36666    0.13026   1.00
H2       0.80959    0.36726    0.19132   1.00
H2       0.78865    0.38923    0.10721   1.00
H2       0.76519    0.34899    0.13055   1.00
C5       0.82809    0.34069    0.12119   1.00
H2       0.85529    0.35811    0.12407   1.00
H2       0.82636    0.32891    0.09096   1.00
H2       0.82946    0.31494    0.14119   1.00
C5       0.63579    0.49020    0.19517   1.00
H2       0.61209    0.51218    0.19852   1.00
H2       0.63316    0.46955    0.22015   1.00
C5       0.63170    0.46803    0.15631   1.00
H2       0.60149    0.45666    0.15320   1.00
C5       0.36773    0.29850    0.13261   1.00
H2       0.35245    0.26995    0.13149   1.00
H2       0.38901    0.29813    0.10816   1.00
C5       0.33781    0.33185    0.12695   1.00
H2       0.33110    0.33610    0.09545   1.00
H2       0.34960    0.35956    0.13911   1.00
O_3      0.52000    0.31905    0.26545   1.00
C4       0.47900    0.24956    0.25004   1.00
C3c      0.45757    0.25656    0.21582   1.00
H1       0.47275    0.26199    0.18871   1.00
C3d      0.45865    0.24199    0.28494   1.00
C3       0.41646    0.25723    0.21605   1.00
O2       0.39752    0.25951    0.18071   1.00
C3       0.41773    0.24337    0.28543   1.00
H1       0.40343    0.23876    0.31316   1.00
C2       0.39561    0.25083    0.25118   1.00
C5       0.52121    0.32820    0.30560   1.00
H2       0.55162    0.33247    0.31633   1.00
H2       0.50734    0.30472    0.32340   1.00
C5       0.49878    0.36600    0.31144   1.00
H2       0.46871    0.36208    0.29971   1.00
H2       0.51309    0.38930    0.29383   1.00
C5       0.49746    0.37740    0.35470   1.00
H2       0.52740    0.38109    0.36666   1.00
H2       0.48197    0.35478    0.37210   1.00
H2       0.48170    0.40553    0.35829   1.00
C5       0.48895    0.19841    0.32511   1.00
C5       0.38930    0.29894    0.17174   1.00
H2       0.50912    0.18850    0.30170   1.00
H2       0.46288    0.17891    0.32538   1.00
H2       0.41700    0.31586    0.16917   1.00
H2       0.37105    0.31342    0.19461   1.00
H2       0.30945    0.32490    0.14152   1.00
H2       0.55750    0.15508    0.34810   1.00
H2       0.51234    0.13115    0.36231   1.00
C2       0.60395    0.25149    0.25210   1.00
C3       0.58403    0.21679    0.24226   1.00
O2       0.60326    0.18143    0.24281   1.00
C3       0.58174    0.28556    0.25923   1.00
H1       0.59615    0.31282    0.26583   1.00
C3a      0.54287    0.21663    0.24078   1.00
H1       0.52798    0.18933    0.23540   1.00
C3b      0.54078    0.28500    0.25895   1.00
C4       0.52100    0.25035    0.24977   1.00
O_3      0.47833    0.23786    0.31996   1.00
C5       0.61280    0.16981    0.20448   1.00
H2       0.58609    0.16673    0.18606   1.00
C5       0.63334    0.13026    0.20752   1.00
H2       0.63274    0.19132    0.19041   1.00
H2       0.61077    0.10721    0.21135   1.00
H2       0.65101    0.13055    0.23481   1.00
C5       0.65931    0.12119    0.17191   1.00
H2       0.64189    0.12407    0.14471   1.00
H2       0.67109    0.09096    0.17364   1.00
H2       0.68506    0.14119    0.17054   1.00
C5       0.50980    0.19517    0.36421   1.00
H2       0.48782    0.19852    0.38791   1.00
H2       0.53045    0.22015    0.36684   1.00
C5       0.53197    0.15631    0.36830   1.00
H2       0.54334    0.15320    0.39851   1.00
C5       1.13227    0.29850    0.36739   1.00
H2       1.14755    0.26995    0.36851   1.00
H2       1.11099    0.29813    0.39184   1.00
C5       1.16219    0.33185    0.37305   1.00
H2       1.16890    0.33610    0.40455   1.00
H2       1.15040    0.35956    0.36089   1.00
O_3      0.98000    0.31905    0.23455   1.00
C4       1.02100    0.24956    0.24996   1.00
C3c      1.04243    0.25656    0.28418   1.00
H1       1.02725    0.26199    0.31129   1.00
C3d      1.04135    0.24199    0.21506   1.00
C3       1.08354    0.25723    0.28395   1.00
O2       1.10248    0.25951    0.31929   1.00
C3       1.08227    0.24337    0.21457   1.00
H1       1.09657    0.23876    0.18684   1.00
C2       1.10439    0.25083    0.24882   1.00
C5       0.97879    0.32820    0.19440   1.00
H2       0.94838    0.33247    0.18367   1.00
H2       0.99266    0.30472    0.17660   1.00
C5       1.00122    0.36600    0.18856   1.00
H2       1.03129    0.36208    0.20029   1.00
H2       0.98691    0.38930    0.20617   1.00
C5       1.00254    0.37740    0.14530   1.00
H2       0.97260    0.38109    0.13334   1.00
H2       1.01803    0.35478    0.12790   1.00
H2       1.01830    0.40553    0.14171   1.00
C5       1.01105    0.19841    0.17489   1.00
C5       1.11070    0.29894    0.32826   1.00
H2       0.99088    0.18850    0.19830   1.00
H2       1.03712    0.17891    0.17462   1.00
H2       1.08300    0.31586    0.33083   1.00
H2       1.12895    0.31342    0.30539   1.00
H2       1.19055    0.32490    0.35848   1.00
H2       0.94250    0.15508    0.15190   1.00
H2       0.98766    0.13115    0.13769   1.00
C2       0.89605    0.25149    0.24790   1.00
C3       0.91597    0.21679    0.25774   1.00
O2       0.89674    0.18143    0.25719   1.00
C3       0.91826    0.28556    0.24077   1.00
H1       0.90385    0.31282    0.23417   1.00
C3a      0.95713    0.21663    0.25922   1.00
H1       0.97202    0.18933    0.26460   1.00
C3b      0.95922    0.28500    0.24105   1.00
C4       0.97900    0.25035    0.25023   1.00
O_3      1.02167    0.23786    0.18004   1.00
C5       0.88720    0.16981    0.29552   1.00
H2       0.91391    0.16673    0.31394   1.00
C5       0.86666    0.13026    0.29248   1.00
H2       0.86726    0.19132    0.30959   1.00
H2       0.88923    0.10721    0.28865   1.00
H2       0.84899    0.13055    0.26519   1.00
C5       0.84069    0.12119    0.32809   1.00
H2       0.85811    0.12407    0.35529   1.00
H2       0.82891    0.09096    0.32636   1.00
H2       0.81494    0.14119    0.32946   1.00
C5       0.99020    0.19517    0.13579   1.00
H2       1.01218    0.19852    0.11209   1.00
H2       0.96955    0.22015    0.13316   1.00
C5       0.96803    0.15631    0.13170   1.00
H2       0.95666    0.15320    0.10149   1.00
C5       0.63261    -0.13227   0.29850   1.00
H2       0.63149    -0.14755   0.26995   1.00
H2       0.60816    -0.11099   0.29813   1.00
C5       0.62695    -0.16219   0.33185   1.00
H2       0.59545    -0.16890   0.33610   1.00
H2       0.63911    -0.15040   0.35956   1.00
O_3      0.76545    0.02000    0.31905   1.00
C4       0.75004    -0.02100   0.24956   1.00
C3c      0.71582    -0.04243   0.25656   1.00
H1       0.68871    -0.02725   0.26199   1.00
C3d      0.78494    -0.04135   0.24199   1.00
C3       0.71605    -0.08354   0.25723   1.00
O2       0.68071    -0.10248   0.25951   1.00
C3       0.78543    -0.08227   0.24337   1.00
H1       0.81316    -0.09657   0.23876   1.00
C2       0.75118    -0.10439   0.25083   1.00
C5       0.80560    0.02121    0.32820   1.00
H2       0.81633    0.05162    0.33247   1.00
H2       0.82340    0.00734    0.30472   1.00
C5       0.81144    -0.00122   0.36600   1.00
H2       0.79971    -0.03129   0.36208   1.00
H2       0.79383    0.01309    0.38930   1.00
C5       0.85470    -0.00254   0.37740   1.00
H2       0.86666    0.02740    0.38109   1.00
H2       0.87210    -0.01803   0.35478   1.00
H2       0.85829    -0.01830   0.40553   1.00
C5       0.82511    -0.01105   0.19841   1.00
C5       0.67174    -0.11070   0.29894   1.00
H2       0.80170    0.00912    0.18850   1.00
H2       0.82538    -0.03712   0.17891   1.00
H2       0.66917    -0.08300   0.31586   1.00
H2       0.69461    -0.12895   0.31342   1.00
H2       0.64152    -0.19055   0.32490   1.00
H2       0.84810    0.05750    0.15508   1.00
H2       0.86231    0.01234    0.13115   1.00
C2       0.75210    0.10395    0.25149   1.00
C3       0.74226    0.08403    0.21679   1.00
O2       0.74281    0.10326    0.18143   1.00
C3       0.75923    0.08174    0.28556   1.00
H1       0.76583    0.09615    0.31282   1.00
C3a      0.74078    0.04287    0.21663   1.00
H1       0.73540    0.02798    0.18933   1.00
C3b      0.75895    0.04078    0.28500   1.00
C4       0.74977    0.02100    0.25035   1.00
O_3      0.81996    -0.02167   0.23786   1.00
C5       0.70448    0.11280    0.16981   1.00
H2       0.68606    0.08609    0.16673   1.00
C5       0.70752    0.13334    0.13026   1.00
H2       0.69041    0.13274    0.19132   1.00
H2       0.71135    0.11077    0.10721   1.00
H2       0.73481    0.15101    0.13055   1.00
C5       0.67191    0.15931    0.12119   1.00
H2       0.64471    0.14189    0.12407   1.00
H2       0.67364    0.17109    0.09096   1.00
H2       0.67054    0.18506    0.14119   1.00
C5       0.86421    0.00980    0.19517   1.00
H2       0.88791    -0.01218   0.19852   1.00
H2       0.86684    0.03045    0.22015   1.00
C5       0.86830    0.03197    0.15631   1.00
H2       0.89851    0.04334    0.15320   1.00
C5       0.79850    0.13261    -0.13227   1.00
H2       0.76995    0.13149    -0.14755   1.00
H2       0.79813    0.10816    -0.11099   1.00
C5       0.83185    0.12695    -0.16219   1.00
H2       0.83610    0.09545    -0.16890   1.00
H2       0.85956    0.13911    -0.15040   1.00
O_3      0.81905    0.26545    0.02000   1.00
C4       0.74956    0.25004    -0.02100   1.00
C3c      0.75656    0.21582    -0.04243   1.00
H1       0.76199    0.18871    -0.02725   1.00
C3d      0.74199    0.28494    -0.04135   1.00
C3       0.75723    0.21605    -0.08354   1.00
O2       0.75951    0.18071    -0.10248   1.00
C3       0.74337    0.28543    -0.08227   1.00
H1       0.73876    0.31316    -0.09657   1.00
C2       0.75083    0.25118    -0.10439   1.00
C5       0.82820    0.30560    0.02121   1.00
H2       0.83247    0.31633    0.05162   1.00
H2       0.80472    0.32340    0.00734   1.00
C5       0.86600    0.31144    -0.00122   1.00
H2       0.86208    0.29971    -0.03129   1.00
H2       0.88930    0.29383    0.01309   1.00
C5       0.87740    0.35470    -0.00254   1.00
H2       0.88109    0.36666    0.02740   1.00
H2       0.85478    0.37210    -0.01803   1.00
H2       0.90553    0.35829    -0.01830   1.00
C5       0.69841    0.32511    -0.01105   1.00
C5       0.79894    0.17174    -0.11070   1.00
H2       0.68850    0.30170    0.00912   1.00
H2       0.67891    0.32538    -0.03712   1.00
H2       0.81586    0.16917    -0.08300   1.00
H2       0.81342    0.19461    -0.12895   1.00
H2       0.82490    0.14152    -0.19055   1.00
H2       0.65508    0.34810    0.05750   1.00
H2       0.63115    0.36231    0.01234   1.00
C2       0.75149    0.25210    0.10395   1.00
C3       0.71679    0.24226    0.08403   1.00
O2       0.68143    0.24281    0.10326   1.00
C3       0.78556    0.25923    0.08174   1.00
H1       0.81282    0.26583    0.09615   1.00
C3a      0.71663    0.24078    0.04287   1.00
H1       0.68933    0.23540    0.02798   1.00
C3b      0.78500    0.25895    0.04078   1.00
C4       0.75035    0.24977    0.02100   1.00
O_3      0.73786    0.31996    -0.02167   1.00
C5       0.66981    0.20448    0.11280   1.00
H2       0.66673    0.18606    0.08609   1.00
C5       0.63026    0.20752    0.13334   1.00
H2       0.69132    0.19041    0.13274   1.00
H2       0.60721    0.21135    0.11077   1.00
H2       0.63055    0.23481    0.15101   1.00
C5       0.62119    0.17191    0.15931   1.00
H2       0.62407    0.14471    0.14189   1.00
H2       0.59096    0.17364    0.17109   1.00
H2       0.64119    0.17054    0.18506   1.00
C5       0.69517    0.36421    0.00980   1.00
H2       0.69852    0.38791    -0.01218   1.00
H2       0.72015    0.36684    0.03045   1.00
C5       0.65631    0.36830    0.03197   1.00
H2       0.65320    0.39851    0.04334   1.00
C5       0.96350    1.03239    1.29727   1.00
H2       0.93495    1.03351    1.31255   1.00
H2       0.96313    1.05684    1.27599   1.00
C5       0.99685    1.03805    1.32719   1.00
H2       1.00110    1.06955    1.33390   1.00
H2       1.02456    1.02589    1.31540   1.00
O_3      0.98405    0.89955    1.14500   1.00
C4       0.91456    0.91496    1.18600   1.00
C3c      0.92156    0.94918    1.20743   1.00
H1       0.92699    0.97629    1.19225   1.00
C3d      0.90699    0.88006    1.20635   1.00
C3       0.92223    0.94895    1.24854   1.00
O2       0.92451    0.98429    1.26748   1.00
C3       0.90837    0.87957    1.24727   1.00
H1       0.90376    0.85184    1.26157   1.00
C2       0.91583    0.91382    1.26939   1.00
C5       0.99320    0.85940    1.14379   1.00
H2       0.99747    0.84867    1.11338   1.00
H2       0.96972    0.84160    1.15766   1.00
C5       1.03100    0.85356    1.16622   1.00
H2       1.02708    0.86529    1.19629   1.00
H2       1.05430    0.87117    1.15191   1.00
C5       1.04240    0.81030    1.16754   1.00
H2       1.04609    0.79834    1.13760   1.00
H2       1.01978    0.79290    1.18303   1.00
H2       1.07053    0.80671    1.18330   1.00
C5       0.86341    0.83989    1.17605   1.00
C5       0.96394    0.99326    1.27570   1.00
H2       0.85350    0.86330    1.15588   1.00
H2       0.84391    0.83962    1.20212   1.00
H2       0.98086    0.99583    1.24800   1.00
H2       0.97842    0.97039    1.29395   1.00
H2       0.98990    1.02348    1.35555   1.00
H2       0.82008    0.81690    1.10750   1.00
H2       0.79615    0.80269    1.15266   1.00
C2       0.91649    0.91290    1.06105   1.00
C3       0.88179    0.92274    1.08097   1.00
O2       0.84643    0.92219    1.06174   1.00
C3       0.95056    0.90577    1.08326   1.00
H1       0.97782    0.89917    1.06885   1.00
C3a      0.88163    0.92422    1.12213   1.00
H1       0.85433    0.92960    1.13702   1.00
C3b      0.95000    0.90605    1.12422   1.00
C4       0.91535    0.91523    1.14400   1.00
O_3      0.90286    0.84504    1.18667   1.00
C5       0.83481    0.96052    1.05220   1.00
H2       0.83173    0.97894    1.07891   1.00
C5       0.79526    0.95748    1.03166   1.00
H2       0.85632    0.97459    1.03226   1.00
H2       0.77221    0.95365    1.05423   1.00
H2       0.79555    0.93019    1.01399   1.00
C5       0.78619    0.99309    1.00569   1.00
H2       0.78907    1.02029    1.02311   1.00
H2       0.75596    0.99136    0.99391   1.00
H2       0.80619    0.99446    0.97994   1.00
C5       0.86017    0.80079    1.15520   1.00
H2       0.86352    0.77709    1.17718   1.00
H2       0.88515    0.79816    1.13455   1.00
C5       0.82131    0.79670    1.13303   1.00
H2       0.81820    0.76649    1.12166   1.00
C5       1.03239    1.29727    0.96350   1.00
H2       1.03351    1.31255    0.93495   1.00
H2       1.05684    1.27599    0.96313   1.00
C5       1.03805    1.32719    0.99685   1.00
H2       1.06955    1.33390    1.00110   1.00
H2       1.02589    1.31540    1.02456   1.00
O_3      0.89955    1.14500    0.98405   1.00
C4       0.91496    1.18600    0.91456   1.00
C3c      0.94918    1.20743    0.92156   1.00
H1       0.97629    1.19225    0.92699   1.00
C3d      0.88006    1.20635    0.90699   1.00
C3       0.94895    1.24854    0.92223   1.00
O2       0.98429    1.26748    0.92451   1.00
C3       0.87957    1.24727    0.90837   1.00
H1       0.85184    1.26157    0.90376   1.00
C2       0.91382    1.26939    0.91583   1.00
C5       0.85940    1.14379    0.99320   1.00
H2       0.84867    1.11338    0.99747   1.00
H2       0.84160    1.15766    0.96972   1.00
C5       0.85356    1.16622    1.03100   1.00
H2       0.86529    1.19629    1.02708   1.00
H2       0.87117    1.15191    1.05430   1.00
C5       0.81030    1.16754    1.04240   1.00
H2       0.79834    1.13760    1.04609   1.00
H2       0.79290    1.18303    1.01978   1.00
H2       0.80671    1.18330    1.07053   1.00
C5       0.83989    1.17605    0.86341   1.00
C5       0.99326    1.27570    0.96394   1.00
H2       0.86330    1.15588    0.85350   1.00
H2       0.83962    1.20212    0.84391   1.00
H2       0.99583    1.24800    0.98086   1.00
H2       0.97039    1.29395    0.97842   1.00
H2       1.02348    1.35555    0.98990   1.00
H2       0.81690    1.10750    0.82008   1.00
H2       0.80269    1.15266    0.79615   1.00
C2       0.91290    1.06105    0.91649   1.00
C3       0.92274    1.08097    0.88179   1.00
O2       0.92219    1.06174    0.84643   1.00
C3       0.90577    1.08326    0.95056   1.00
H1       0.89917    1.06885    0.97782   1.00
C3a      0.92422    1.12213    0.88163   1.00
H1       0.92960    1.13702    0.85433   1.00
C3b      0.90605    1.12422    0.95000   1.00
C4       0.91523    1.14400    0.91535   1.00
O_3      0.84504    1.18667    0.90286   1.00
C5       0.96052    1.05220    0.83481   1.00
H2       0.97894    1.07891    0.83173   1.00
C5       0.95748    1.03166    0.79526   1.00
H2       0.97459    1.03226    0.85632   1.00
H2       0.95365    1.05423    0.77221   1.00
H2       0.93019    1.01399    0.79555   1.00
C5       0.99309    1.00569    0.78619   1.00
H2       1.02029    1.02311    0.78907   1.00
H2       0.99136    0.99391    0.75596   1.00
H2       0.99446    0.97994    0.80619   1.00
C5       0.80079    1.15520    0.86017   1.00
H2       0.77709    1.17718    0.86352   1.00
H2       0.79816    1.13455    0.88515   1.00
C5       0.79670    1.13303    0.82131   1.00
H2       0.76649    1.12166    0.81820   1.00
C5       0.53273    0.96350    0.79761   1.00
H2       0.51745    0.93495    0.79649   1.00
H2       0.55401    0.96313    0.77316   1.00
C5       0.50281    0.99685    0.79195   1.00
H2       0.49610    1.00110    0.76045   1.00
H2       0.51460    1.02456    0.80411   1.00
O_3      0.68500    0.98405    0.93045   1.00
C4       0.64400    0.91456    0.91504   1.00
C3c      0.62257    0.92156    0.88082   1.00
H1       0.63775    0.92699    0.85371   1.00
C3d      0.62365    0.90699    0.94994   1.00
C3       0.58146    0.92223    0.88105   1.00
O2       0.56252    0.92451    0.84571   1.00
C3       0.58273    0.90837    0.95043   1.00
H1       0.56843    0.90376    0.97816   1.00
C2       0.56061    0.91583    0.91618   1.00
C5       0.68621    0.99320    0.97060   1.00
H2       0.71662    0.99747    0.98133   1.00
H2       0.67234    0.96972    0.98840   1.00
C5       0.66378    1.03100    0.97644   1.00
H2       0.63371    1.02708    0.96471   1.00
H2       0.67809    1.05430    0.95883   1.00
C5       0.66246    1.04240    1.01970   1.00
H2       0.69240    1.04609    1.03166   1.00
H2       0.64697    1.01978    1.03710   1.00
H2       0.64670    1.07053    1.02329   1.00
C5       0.65395    0.86341    0.99011   1.00
C5       0.55430    0.96394    0.83674   1.00
H2       0.67412    0.85350    0.96670   1.00
H2       0.62788    0.84391    0.99038   1.00
H2       0.58200    0.98086    0.83417   1.00
H2       0.53605    0.97842    0.85961   1.00
H2       0.47445    0.98990    0.80652   1.00
H2       0.72250    0.82008    1.01310   1.00
H2       0.67734    0.79615    1.02731   1.00
C2       0.76895    0.91649    0.91710   1.00
C3       0.74903    0.88179    0.90726   1.00
O2       0.76826    0.84643    0.90781   1.00
C3       0.74674    0.95056    0.92423   1.00
H1       0.76115    0.97782    0.93083   1.00
C3a      0.70787    0.88163    0.90578   1.00
H1       0.69298    0.85433    0.90040   1.00
C3b      0.70578    0.95000    0.92395   1.00
C4       0.68600    0.91535    0.91477   1.00
O_3      0.64333    0.90286    0.98496   1.00
C5       0.77780    0.83481    0.86948   1.00
H2       0.75109    0.83173    0.85106   1.00
C5       0.79834    0.79526    0.87252   1.00
H2       0.79774    0.85632    0.85541   1.00
H2       0.77577    0.77221    0.87635   1.00
H2       0.81601    0.79555    0.89981   1.00
C5       0.82431    0.78619    0.83691   1.00
H2       0.80689    0.78907    0.80971   1.00
H2       0.83609    0.75596    0.83864   1.00
H2       0.85006    0.80619    0.83554   1.00
C5       0.67480    0.86017    1.02921   1.00
H2       0.65282    0.86352    1.05291   1.00
H2       0.69545    0.88515    1.03184   1.00
C5       0.69697    0.82131    1.03330   1.00
H2       0.70834    0.81820    1.06351   1.00
C5       1.29727    0.96350    1.03239   1.00
H2       1.31255    0.93495    1.03351   1.00
H2       1.27599    0.96313    1.05684   1.00
C5       1.32719    0.99685    1.03805   1.00
H2       1.33390    1.00110    1.06955   1.00
H2       1.31540    1.02456    1.02589   1.00
O_3      1.14500    0.98405    0.89955   1.00
C4       1.18600    0.91456    0.91496   1.00
C3c      1.20743    0.92156    0.94918   1.00
H1       1.19225    0.92699    0.97629   1.00
C3d      1.20635    0.90699    0.88006   1.00
C3       1.24854    0.92223    0.94895   1.00
O2       1.26748    0.92451    0.98429   1.00
C3       1.24727    0.90837    0.87957   1.00
H1       1.26157    0.90376    0.85184   1.00
C2       1.26939    0.91583    0.91382   1.00
C5       1.14379    0.99320    0.85940   1.00
H2       1.11338    0.99747    0.84867   1.00
H2       1.15766    0.96972    0.84160   1.00
C5       1.16622    1.03100    0.85356   1.00
H2       1.19629    1.02708    0.86529   1.00
H2       1.15191    1.05430    0.87117   1.00
C5       1.16754    1.04240    0.81030   1.00
H2       1.13760    1.04609    0.79834   1.00
H2       1.18303    1.01978    0.79290   1.00
H2       1.18330    1.07053    0.80671   1.00
C5       1.17605    0.86341    0.83989   1.00
C5       1.27570    0.96394    0.99326   1.00
H2       1.15588    0.85350    0.86330   1.00
H2       1.20212    0.84391    0.83962   1.00
H2       1.24800    0.98086    0.99583   1.00
H2       1.29395    0.97842    0.97039   1.00
H2       1.35555    0.98990    1.02348   1.00
H2       1.10750    0.82008    0.81690   1.00
H2       1.15266    0.79615    0.80269   1.00
C2       1.06105    0.91649    0.91290   1.00
C3       1.08097    0.88179    0.92274   1.00
O2       1.06174    0.84643    0.92219   1.00
C3       1.08326    0.95056    0.90577   1.00
H1       1.06885    0.97782    0.89917   1.00
C3a      1.12213    0.88163    0.92422   1.00
H1       1.13702    0.85433    0.92960   1.00
C3b      1.12422    0.95000    0.90605   1.00
C4       1.14400    0.91535    0.91523   1.00
O_3      1.18667    0.90286    0.84504   1.00
C5       1.05220    0.83481    0.96052   1.00
H2       1.07891    0.83173    0.97894   1.00
C5       1.03166    0.79526    0.95748   1.00
H2       1.03226    0.85632    0.97459   1.00
H2       1.05423    0.77221    0.95365   1.00
H2       1.01399    0.79555    0.93019   1.00
C5       1.00569    0.78619    0.99309   1.00
H2       1.02311    0.78907    1.02029   1.00
H2       0.99391    0.75596    0.99136   1.00
H2       0.97994    0.80619    0.99446   1.00
C5       1.15520    0.86017    0.80079   1.00
H2       1.17718    0.86352    0.77709   1.00
H2       1.13455    0.88515    0.79816   1.00
C5       1.13303    0.82131    0.79670   1.00
H2       1.12166    0.81820    0.76649   1.00
C5       0.79761    0.53273    0.96350   1.00
H2       0.79649    0.51745    0.93495   1.00
H2       0.77316    0.55401    0.96313   1.00
C5       0.79195    0.50281    0.99685   1.00
H2       0.76045    0.49610    1.00110   1.00
H2       0.80411    0.51460    1.02456   1.00
O_3      0.93045    0.68500    0.98405   1.00
C4       0.91504    0.64400    0.91456   1.00
C3c      0.88082    0.62257    0.92156   1.00
H1       0.85371    0.63775    0.92699   1.00
C3d      0.94994    0.62365    0.90699   1.00
C3       0.88105    0.58146    0.92223   1.00
O2       0.84571    0.56252    0.92451   1.00
C3       0.95043    0.58273    0.90837   1.00
H1       0.97816    0.56843    0.90376   1.00
C2       0.91618    0.56061    0.91583   1.00
C5       0.97060    0.68621    0.99320   1.00
H2       0.98133    0.71662    0.99747   1.00
H2       0.98840    0.67234    0.96972   1.00
C5       0.97644    0.66378    1.03100   1.00
H2       0.96471    0.63371    1.02708   1.00
H2       0.95883    0.67809    1.05430   1.00
C5       1.01970    0.66246    1.04240   1.00
H2       1.03166    0.69240    1.04609   1.00
H2       1.03710    0.64697    1.01978   1.00
H2       1.02329    0.64670    1.07053   1.00
C5       0.99011    0.65395    0.86341   1.00
C5       0.83674    0.55430    0.96394   1.00
H2       0.96670    0.67412    0.85350   1.00
H2       0.99038    0.62788    0.84391   1.00
H2       0.83417    0.58200    0.98086   1.00
H2       0.85961    0.53605    0.97842   1.00
H2       0.80652    0.47445    0.98990   1.00
H2       1.01310    0.72250    0.82008   1.00
H2       1.02731    0.67734    0.79615   1.00
C2       0.91710    0.76895    0.91649   1.00
C3       0.90726    0.74903    0.88179   1.00
O2       0.90781    0.76826    0.84643   1.00
C3       0.92423    0.74674    0.95056   1.00
H1       0.93083    0.76115    0.97782   1.00
C3a      0.90578    0.70787    0.88163   1.00
H1       0.90040    0.69298    0.85433   1.00
C3b      0.92395    0.70578    0.95000   1.00
C4       0.91477    0.68600    0.91535   1.00
O_3      0.98496    0.64333    0.90286   1.00
C5       0.86948    0.77780    0.83481   1.00
H2       0.85106    0.75109    0.83173   1.00
C5       0.87252    0.79834    0.79526   1.00
H2       0.85541    0.79774    0.85632   1.00
H2       0.87635    0.77577    0.77221   1.00
H2       0.89981    0.81601    0.79555   1.00
C5       0.83691    0.82431    0.78619   1.00
H2       0.80971    0.80689    0.78907   1.00
H2       0.83864    0.83609    0.75596   1.00
H2       0.83554    0.85006    0.80619   1.00
C5       1.02921    0.67480    0.86017   1.00
H2       1.05291    0.65282    0.86352   1.00
H2       1.03184    0.69545    0.88515   1.00
C5       1.03330    0.69697    0.82131   1.00
H2       1.06351    0.70834    0.81820   1.00
C5       0.96350    0.79761    0.53273   1.00
H2       0.93495    0.79649    0.51745   1.00
H2       0.96313    0.77316    0.55401   1.00
C5       0.99685    0.79195    0.50281   1.00
H2       1.00110    0.76045    0.49610   1.00
H2       1.02456    0.80411    0.51460   1.00
O_3      0.98405    0.93045    0.68500   1.00
C4       0.91456    0.91504    0.64400   1.00
C3c      0.92156    0.88082    0.62257   1.00
H1       0.92699    0.85371    0.63775   1.00
C3d      0.90699    0.94994    0.62365   1.00
C3       0.92223    0.88105    0.58146   1.00
O2       0.92451    0.84571    0.56252   1.00
C3       0.90837    0.95043    0.58273   1.00
H1       0.90376    0.97816    0.56843   1.00
C2       0.91583    0.91618    0.56061   1.00
C5       0.99320    0.97060    0.68621   1.00
H2       0.99747    0.98133    0.71662   1.00
H2       0.96972    0.98840    0.67234   1.00
C5       1.03100    0.97644    0.66378   1.00
H2       1.02708    0.96471    0.63371   1.00
H2       1.05430    0.95883    0.67809   1.00
C5       1.04240    1.01970    0.66246   1.00
H2       1.04609    1.03166    0.69240   1.00
H2       1.01978    1.03710    0.64697   1.00
H2       1.07053    1.02329    0.64670   1.00
C5       0.86341    0.99011    0.65395   1.00
C5       0.96394    0.83674    0.55430   1.00
H2       0.85350    0.96670    0.67412   1.00
H2       0.84391    0.99038    0.62788   1.00
H2       0.98086    0.83417    0.58200   1.00
H2       0.97842    0.85961    0.53605   1.00
H2       0.98990    0.80652    0.47445   1.00
H2       0.82008    1.01310    0.72250   1.00
H2       0.79615    1.02731    0.67734   1.00
C2       0.91649    0.91710    0.76895   1.00
C3       0.88179    0.90726    0.74903   1.00
O2       0.84643    0.90781    0.76826   1.00
C3       0.95056    0.92423    0.74674   1.00
H1       0.97782    0.93083    0.76115   1.00
C3a      0.88163    0.90578    0.70787   1.00
H1       0.85433    0.90040    0.69298   1.00
C3b      0.95000    0.92395    0.70578   1.00
C4       0.91535    0.91477    0.68600   1.00
O_3      0.90286    0.98496    0.64333   1.00
C5       0.83481    0.86948    0.77780   1.00
H2       0.83173    0.85106    0.75109   1.00
C5       0.79526    0.87252    0.79834   1.00
H2       0.85632    0.85541    0.79774   1.00
H2       0.77221    0.87635    0.77577   1.00
H2       0.79555    0.89981    0.81601   1.00
C5       0.78619    0.83691    0.82431   1.00
H2       0.78907    0.80971    0.80689   1.00
H2       0.75596    0.83864    0.83609   1.00
H2       0.80619    0.83554    0.85006   1.00
C5       0.86017    1.02921    0.67480   1.00
H2       0.86352    1.05291    0.65282   1.00
H2       0.88515    1.03184    0.69545   1.00
C5       0.82131    1.03330    0.69697   1.00
H2       0.81820    1.06351    0.70834   1.00
C5       0.46350    0.53239    1.29727   1.00
H2       0.43495    0.53351    1.31255   1.00
H2       0.46313    0.55684    1.27599   1.00
C5       0.49685    0.53805    1.32719   1.00
H2       0.50110    0.56955    1.33390   1.00
H2       0.52456    0.52589    1.31540   1.00
O_3      0.48405    0.39955    1.14500   1.00
C4       0.41456    0.41496    1.18600   1.00
C3c      0.42156    0.44918    1.20743   1.00
H1       0.42699    0.47629    1.19225   1.00
C3d      0.40699    0.38006    1.20635   1.00
C3       0.42223    0.44895    1.24854   1.00
O2       0.42451    0.48429    1.26748   1.00
C3       0.40837    0.37957    1.24727   1.00
H1       0.40376    0.35184    1.26157   1.00
C2       0.41583    0.41382    1.26939   1.00
C5       0.49320    0.35940    1.14379   1.00
H2       0.49747    0.34867    1.11338   1.00
H2       0.46972    0.34160    1.15766   1.00
C5       0.53100    0.35356    1.16622   1.00
H2       0.52708    0.36529    1.19629   1.00
H2       0.55430    0.37117    1.15191   1.00
C5       0.54240    0.31030    1.16754   1.00
H2       0.54609    0.29834    1.13760   1.00
H2       0.51978    0.29290    1.18303   1.00
H2       0.57053    0.30671    1.18330   1.00
C5       0.36341    0.33989    1.17605   1.00
C5       0.46394    0.49326    1.27570   1.00
H2       0.35350    0.36330    1.15588   1.00
H2       0.34391    0.33962    1.20212   1.00
H2       0.48086    0.49583    1.24800   1.00
H2       0.47842    0.47039    1.29395   1.00
H2       0.48990    0.52348    1.35555   1.00
H2       0.32008    0.31690    1.10750   1.00
H2       0.29615    0.30269    1.15266   1.00
C2       0.41649    0.41290    1.06105   1.00
C3       0.38179    0.42274    1.08097   1.00
O2       0.34643    0.42219    1.06174   1.00
C3       0.45056    0.40577    1.08326   1.00
H1       0.47782    0.39917    1.06885   1.00
C3a      0.38163    0.42422    1.12213   1.00
H1       0.35433    0.42960    1.13702   1.00
C3b      0.45000    0.40605    1.12422   1.00
C4       0.41535    0.41523    1.14400   1.00
O_3      0.40286    0.34504    1.18667   1.00
C5       0.33481    0.46052    1.05220   1.00
H2       0.33173    0.47894    1.07891   1.00
C5       0.29526    0.45748    1.03166   1.00
H2       0.35632    0.47459    1.03226   1.00
H2       0.27221    0.45365    1.05423   1.00
H2       0.29555    0.43019    1.01399   1.00
C5       0.28619    0.49309    1.00569   1.00
H2       0.28907    0.52029    1.02311   1.00
H2       0.25596    0.49136    0.99391   1.00
H2       0.30619    0.49446    0.97994   1.00
C5       0.36017    0.30079    1.15520   1.00
H2       0.36352    0.27709    1.17718   1.00
H2       0.38515    0.29816    1.13455   1.00
C5       0.32131    0.29670    1.13303   1.00
H2       0.31820    0.26649    1.12166   1.00
C5       0.53239    0.79727    0.96350   1.00
H2       0.53351    0.81255    0.93495   1.00
H2       0.55684    0.77599    0.96313   1.00
C5       0.53805    0.82719    0.99685   1.00
H2       0.56955    0.83390    1.00110   1.00
H2       0.52589    0.81540    1.02456   1.00
O_3      0.39955    0.64500    0.98405   1.00
C4       0.41496    0.68600    0.91456   1.00
C3c      0.44918    0.70743    0.92156   1.00
H1       0.47629    0.69225    0.92699   1.00
C3d      0.38006    0.70635    0.90699   1.00
C3       0.44895    0.74854    0.92223   1.00
O2       0.48429    0.76748    0.92451   1.00
C3       0.37957    0.74727    0.90837   1.00
H1       0.35184    0.76157    0.90376   1.00
C2       0.41382    0.76939    0.91583   1.00
C5       0.35940    0.64379    0.99320   1.00
H2       0.34867    0.61338    0.99747   1.00
H2       0.34160    0.65766    0.96972   1.00
C5       0.35356    0.66622    1.03100   1.00
H2       0.36529    0.69629    1.02708   1.00
H2       0.37117    0.65191    1.05430   1.00
C5       0.31030    0.66754    1.04240   1.00
H2       0.29834    0.63760    1.04609   1.00
H2       0.29290    0.68303    1.01978   1.00
H2       0.30671    0.68330    1.07053   1.00
C5       0.33989    0.67605    0.86341   1.00
C5       0.49326    0.77570    0.96394   1.00
H2       0.36330    0.65588    0.85350   1.00
H2       0.33962    0.70212    0.84391   1.00
H2       0.49583    0.74800    0.98086   1.00
H2       0.47039    0.79395    0.97842   1.00
H2       0.52348    0.85555    0.98990   1.00
H2       0.31690    0.60750    0.82008   1.00
H2       0.30269    0.65266    0.79615   1.00
C2       0.41290    0.56105    0.91649   1.00
C3       0.42274    0.58097    0.88179   1.00
O2       0.42219    0.56174    0.84643   1.00
C3       0.40577    0.58326    0.95056   1.00
H1       0.39917    0.56885    0.97782   1.00
C3a      0.42422    0.62213    0.88163   1.00
H1       0.42960    0.63702    0.85433   1.00
C3b      0.40605    0.62422    0.95000   1.00
C4       0.41523    0.64400    0.91535   1.00
O_3      0.34504    0.68667    0.90286   1.00
C5       0.46052    0.55220    0.83481   1.00
H2       0.47894    0.57891    0.83173   1.00
C5       0.45748    0.53166    0.79526   1.00
H2       0.47459    0.53226    0.85632   1.00
H2       0.45365    0.55423    0.77221   1.00
H2       0.43019    0.51399    0.79555   1.00
C5       0.49309    0.50569    0.78619   1.00
H2       0.52029    0.52311    0.78907   1.00
H2       0.49136    0.49391    0.75596   1.00
H2       0.49446    0.47994    0.80619   1.00
C5       0.30079    0.65520    0.86017   1.00
H2       0.27709    0.67718    0.86352   1.00
H2       0.29816    0.63455    0.88515   1.00
C5       0.29670    0.63303    0.82131   1.00
H2       0.26649    0.62166    0.81820   1.00
C5       0.03273    0.46350    0.79761   1.00
H2       0.01745    0.43495    0.79649   1.00
H2       0.05401    0.46313    0.77316   1.00
C5       0.00281    0.49685    0.79195   1.00
H2       -0.00390   0.50110    0.76045   1.00
H2       0.01460    0.52456    0.80411   1.00
O_3      0.18500    0.48405    0.93045   1.00
C4       0.14400    0.41456    0.91504   1.00
C3c      0.12257    0.42156    0.88082   1.00
H1       0.13775    0.42699    0.85371   1.00
C3d      0.12365    0.40699    0.94994   1.00
C3       0.08146    0.42223    0.88105   1.00
O2       0.06252    0.42451    0.84571   1.00
C3       0.08273    0.40837    0.95043   1.00
H1       0.06843    0.40376    0.97816   1.00
C2       0.06061    0.41583    0.91618   1.00
C5       0.18621    0.49320    0.97060   1.00
H2       0.21662    0.49747    0.98133   1.00
H2       0.17234    0.46972    0.98840   1.00
C5       0.16378    0.53100    0.97644   1.00
H2       0.13371    0.52708    0.96471   1.00
H2       0.17809    0.55430    0.95883   1.00
C5       0.16246    0.54240    1.01970   1.00
H2       0.19240    0.54609    1.03166   1.00
H2       0.14697    0.51978    1.03710   1.00
H2       0.14670    0.57053    1.02329   1.00
C5       0.15395    0.36341    0.99011   1.00
C5       0.05430    0.46394    0.83674   1.00
H2       0.17412    0.35350    0.96670   1.00
H2       0.12788    0.34391    0.99038   1.00
H2       0.08200    0.48086    0.83417   1.00
H2       0.03605    0.47842    0.85961   1.00
H2       -0.02555   0.48990    0.80652   1.00
H2       0.22250    0.32008    1.01310   1.00
H2       0.17734    0.29615    1.02731   1.00
C2       0.26895    0.41649    0.91710   1.00
C3       0.24903    0.38179    0.90726   1.00
O2       0.26826    0.34643    0.90781   1.00
C3       0.24674    0.45056    0.92423   1.00
H1       0.26115    0.47782    0.93083   1.00
C3a      0.20787    0.38163    0.90578   1.00
H1       0.19298    0.35433    0.90040   1.00
C3b      0.20578    0.45000    0.92395   1.00
C4       0.18600    0.41535    0.91477   1.00
O_3      0.14333    0.40286    0.98496   1.00
C5       0.27780    0.33481    0.86948   1.00
H2       0.25109    0.33173    0.85106   1.00
C5       0.29834    0.29526    0.87252   1.00
H2       0.29774    0.35632    0.85541   1.00
H2       0.27577    0.27221    0.87635   1.00
H2       0.31601    0.29555    0.89981   1.00
C5       0.32431    0.28619    0.83691   1.00
H2       0.30689    0.28907    0.80971   1.00
H2       0.33609    0.25596    0.83864   1.00
H2       0.35006    0.30619    0.83554   1.00
C5       0.17480    0.36017    1.02921   1.00
H2       0.15282    0.36352    1.05291   1.00
H2       0.19545    0.38515    1.03184   1.00
C5       0.19697    0.32131    1.03330   1.00
H2       0.20834    0.31820    1.06351   1.00
C5       0.79727    0.46350    1.03239   1.00
H2       0.81255    0.43495    1.03351   1.00
H2       0.77599    0.46313    1.05684   1.00
C5       0.82719    0.49685    1.03805   1.00
H2       0.83390    0.50110    1.06955   1.00
H2       0.81540    0.52456    1.02589   1.00
O_3      0.64500    0.48405    0.89955   1.00
C4       0.68600    0.41456    0.91496   1.00
C3c      0.70743    0.42156    0.94918   1.00
H1       0.69225    0.42699    0.97629   1.00
C3d      0.70635    0.40699    0.88006   1.00
C3       0.74854    0.42223    0.94895   1.00
O2       0.76748    0.42451    0.98429   1.00
C3       0.74727    0.40837    0.87957   1.00
H1       0.76157    0.40376    0.85184   1.00
C2       0.76939    0.41583    0.91382   1.00
C5       0.64379    0.49320    0.85940   1.00
H2       0.61338    0.49747    0.84867   1.00
H2       0.65766    0.46972    0.84160   1.00
C5       0.66622    0.53100    0.85356   1.00
H2       0.69629    0.52708    0.86529   1.00
H2       0.65191    0.55430    0.87117   1.00
C5       0.66754    0.54240    0.81030   1.00
H2       0.63760    0.54609    0.79834   1.00
H2       0.68303    0.51978    0.79290   1.00
H2       0.68330    0.57053    0.80671   1.00
C5       0.67605    0.36341    0.83989   1.00
C5       0.77570    0.46394    0.99326   1.00
H2       0.65588    0.35350    0.86330   1.00
H2       0.70212    0.34391    0.83962   1.00
H2       0.74800    0.48086    0.99583   1.00
H2       0.79395    0.47842    0.97039   1.00
H2       0.85555    0.48990    1.02348   1.00
H2       0.60750    0.32008    0.81690   1.00
H2       0.65266    0.29615    0.80269   1.00
C2       0.56105    0.41649    0.91290   1.00
C3       0.58097    0.38179    0.92274   1.00
O2       0.56174    0.34643    0.92219   1.00
C3       0.58326    0.45056    0.90577   1.00
H1       0.56885    0.47782    0.89917   1.00
C3a      0.62213    0.38163    0.92422   1.00
H1       0.63702    0.35433    0.92960   1.00
C3b      0.62422    0.45000    0.90605   1.00
C4       0.64400    0.41535    0.91523   1.00
O_3      0.68667    0.40286    0.84504   1.00
C5       0.55220    0.33481    0.96052   1.00
H2       0.57891    0.33173    0.97894   1.00
C5       0.53166    0.29526    0.95748   1.00
H2       0.53226    0.35632    0.97459   1.00
H2       0.55423    0.27221    0.95365   1.00
H2       0.51399    0.29555    0.93019   1.00
C5       0.50569    0.28619    0.99309   1.00
H2       0.52311    0.28907    1.02029   1.00
H2       0.49391    0.25596    0.99136   1.00
H2       0.47994    0.30619    0.99446   1.00
C5       0.65520    0.36017    0.80079   1.00
H2       0.67718    0.36352    0.77709   1.00
H2       0.63455    0.38515    0.79816   1.00
C5       0.63303    0.32131    0.79670   1.00
H2       0.62166    0.31820    0.76649   1.00
C5       0.29761    0.03273    0.96350   1.00
H2       0.29649    0.01745    0.93495   1.00
H2       0.27316    0.05401    0.96313   1.00
C5       0.29195    0.00281    0.99685   1.00
H2       0.26045    -0.00390   1.00110   1.00
H2       0.30411    0.01460    1.02456   1.00
O_3      0.43045    0.18500    0.98405   1.00
C4       0.41504    0.14400    0.91456   1.00
C3c      0.38082    0.12257    0.92156   1.00
H1       0.35371    0.13775    0.92699   1.00
C3d      0.44994    0.12365    0.90699   1.00
C3       0.38105    0.08146    0.92223   1.00
O2       0.34571    0.06252    0.92451   1.00
C3       0.45043    0.08273    0.90837   1.00
H1       0.47816    0.06843    0.90376   1.00
C2       0.41618    0.06061    0.91583   1.00
C5       0.47060    0.18621    0.99320   1.00
H2       0.48133    0.21662    0.99747   1.00
H2       0.48840    0.17234    0.96972   1.00
C5       0.47644    0.16378    1.03100   1.00
H2       0.46471    0.13371    1.02708   1.00
H2       0.45883    0.17809    1.05430   1.00
C5       0.51970    0.16246    1.04240   1.00
H2       0.53166    0.19240    1.04609   1.00
H2       0.53710    0.14697    1.01978   1.00
H2       0.52329    0.14670    1.07053   1.00
C5       0.49011    0.15395    0.86341   1.00
C5       0.33674    0.05430    0.96394   1.00
H2       0.46670    0.17412    0.85350   1.00
H2       0.49038    0.12788    0.84391   1.00
H2       0.33417    0.08200    0.98086   1.00
H2       0.35961    0.03605    0.97842   1.00
H2       0.30652    -0.02555   0.98990   1.00
H2       0.51310    0.22250    0.82008   1.00
H2       0.52731    0.17734    0.79615   1.00
C2       0.41710    0.26895    0.91649   1.00
C3       0.40726    0.24903    0.88179   1.00
O2       0.40781    0.26826    0.84643   1.00
C3       0.42423    0.24674    0.95056   1.00
H1       0.43083    0.26115    0.97782   1.00
C3a      0.40578    0.20787    0.88163   1.00
H1       0.40040    0.19298    0.85433   1.00
C3b      0.42395    0.20578    0.95000   1.00
C4       0.41477    0.18600    0.91535   1.00
O_3      0.48496    0.14333    0.90286   1.00
C5       0.36948    0.27780    0.83481   1.00
H2       0.35106    0.25109    0.83173   1.00
C5       0.37252    0.29834    0.79526   1.00
H2       0.35541    0.29774    0.85632   1.00
H2       0.37635    0.27577    0.77221   1.00
H2       0.39981    0.31601    0.79555   1.00
C5       0.33691    0.32431    0.78619   1.00
H2       0.30971    0.30689    0.78907   1.00
H2       0.33864    0.33609    0.75596   1.00
H2       0.33554    0.35006    0.80619   1.00
C5       0.52921    0.17480    0.86017   1.00
H2       0.55291    0.15282    0.86352   1.00
H2       0.53184    0.19545    0.88515   1.00
C5       0.53330    0.19697    0.82131   1.00
H2       0.56351    0.20834    0.81820   1.00
C5       0.46350    0.29761    0.53273   1.00
H2       0.43495    0.29649    0.51745   1.00
H2       0.46313    0.27316    0.55401   1.00
C5       0.49685    0.29195    0.50281   1.00
H2       0.50110    0.26045    0.49610   1.00
H2       0.52456    0.30411    0.51460   1.00
O_3      0.48405    0.43045    0.68500   1.00
C4       0.41456    0.41504    0.64400   1.00
C3c      0.42156    0.38082    0.62257   1.00
H1       0.42699    0.35371    0.63775   1.00
C3d      0.40699    0.44994    0.62365   1.00
C3       0.42223    0.38105    0.58146   1.00
O2       0.42451    0.34571    0.56252   1.00
C3       0.40837    0.45043    0.58273   1.00
H1       0.40376    0.47816    0.56843   1.00
C2       0.41583    0.41618    0.56061   1.00
C5       0.49320    0.47060    0.68621   1.00
H2       0.49747    0.48133    0.71662   1.00
H2       0.46972    0.48840    0.67234   1.00
C5       0.53100    0.47644    0.66378   1.00
H2       0.52708    0.46471    0.63371   1.00
H2       0.55430    0.45883    0.67809   1.00
C5       0.54240    0.51970    0.66246   1.00
H2       0.54609    0.53166    0.69240   1.00
H2       0.51978    0.53710    0.64697   1.00
H2       0.57053    0.52329    0.64670   1.00
C5       0.36341    0.49011    0.65395   1.00
C5       0.46394    0.33674    0.55430   1.00
H2       0.35350    0.46670    0.67412   1.00
H2       0.34391    0.49038    0.62788   1.00
H2       0.48086    0.33417    0.58200   1.00
H2       0.47842    0.35961    0.53605   1.00
H2       0.48990    0.30652    0.47445   1.00
H2       0.32008    0.51310    0.72250   1.00
H2       0.29615    0.52731    0.67734   1.00
C2       0.41649    0.41710    0.76895   1.00
C3       0.38179    0.40726    0.74903   1.00
O2       0.34643    0.40781    0.76826   1.00
C3       0.45056    0.42423    0.74674   1.00
H1       0.47782    0.43083    0.76115   1.00
C3a      0.38163    0.40578    0.70787   1.00
H1       0.35433    0.40040    0.69298   1.00
C3b      0.45000    0.42395    0.70578   1.00
C4       0.41535    0.41477    0.68600   1.00
O_3      0.40286    0.48496    0.64333   1.00
C5       0.33481    0.36948    0.77780   1.00
H2       0.33173    0.35106    0.75109   1.00
C5       0.29526    0.37252    0.79834   1.00
H2       0.35632    0.35541    0.79774   1.00
H2       0.27221    0.37635    0.77577   1.00
H2       0.29555    0.39981    0.81601   1.00
C5       0.28619    0.33691    0.82431   1.00
H2       0.28907    0.30971    0.80689   1.00
H2       0.25596    0.33864    0.83609   1.00
H2       0.30619    0.33554    0.85006   1.00
C5       0.36017    0.52921    0.67480   1.00
H2       0.36352    0.55291    0.65282   1.00
H2       0.38515    0.53184    0.69545   1.00
C5       0.32131    0.53330    0.69697   1.00
H2       0.31820    0.56351    0.70834   1.00
C5       0.46350    1.03239    0.79727   1.00
H2       0.43495    1.03351    0.81255   1.00
H2       0.46313    1.05684    0.77599   1.00
C5       0.49685    1.03805    0.82719   1.00
H2       0.50110    1.06955    0.83390   1.00
H2       0.52456    1.02589    0.81540   1.00
O_3      0.48405    0.89955    0.64500   1.00
C4       0.41456    0.91496    0.68600   1.00
C3c      0.42156    0.94918    0.70743   1.00
H1       0.42699    0.97629    0.69225   1.00
C3d      0.40699    0.88006    0.70635   1.00
C3       0.42223    0.94895    0.74854   1.00
O2       0.42451    0.98429    0.76748   1.00
C3       0.40837    0.87957    0.74727   1.00
H1       0.40376    0.85184    0.76157   1.00
C2       0.41583    0.91382    0.76939   1.00
C5       0.49320    0.85940    0.64379   1.00
H2       0.49747    0.84867    0.61338   1.00
H2       0.46972    0.84160    0.65766   1.00
C5       0.53100    0.85356    0.66622   1.00
H2       0.52708    0.86529    0.69629   1.00
H2       0.55430    0.87117    0.65191   1.00
C5       0.54240    0.81030    0.66754   1.00
H2       0.54609    0.79834    0.63760   1.00
H2       0.51978    0.79290    0.68303   1.00
H2       0.57053    0.80671    0.68330   1.00
C5       0.36341    0.83989    0.67605   1.00
C5       0.46394    0.99326    0.77570   1.00
H2       0.35350    0.86330    0.65588   1.00
H2       0.34391    0.83962    0.70212   1.00
H2       0.48086    0.99583    0.74800   1.00
H2       0.47842    0.97039    0.79395   1.00
H2       0.48990    1.02348    0.85555   1.00
H2       0.32008    0.81690    0.60750   1.00
H2       0.29615    0.80269    0.65266   1.00
C2       0.41649    0.91290    0.56105   1.00
C3       0.38179    0.92274    0.58097   1.00
O2       0.34643    0.92219    0.56174   1.00
C3       0.45056    0.90577    0.58326   1.00
H1       0.47782    0.89917    0.56885   1.00
C3a      0.38163    0.92422    0.62213   1.00
H1       0.35433    0.92960    0.63702   1.00
C3b      0.45000    0.90605    0.62422   1.00
C4       0.41535    0.91523    0.64400   1.00
O_3      0.40286    0.84504    0.68667   1.00
C5       0.33481    0.96052    0.55220   1.00
H2       0.33173    0.97894    0.57891   1.00
C5       0.29526    0.95748    0.53166   1.00
H2       0.35632    0.97459    0.53226   1.00
H2       0.27221    0.95365    0.55423   1.00
H2       0.29555    0.93019    0.51399   1.00
C5       0.28619    0.99309    0.50569   1.00
H2       0.28907    1.02029    0.52311   1.00
H2       0.25596    0.99136    0.49391   1.00
H2       0.30619    0.99446    0.47994   1.00
C5       0.36017    0.80079    0.65520   1.00
H2       0.36352    0.77709    0.67718   1.00
H2       0.38515    0.79816    0.63455   1.00
C5       0.32131    0.79670    0.63303   1.00
H2       0.31820    0.76649    0.62166   1.00
C5       0.53239    1.29727    0.46350   1.00
H2       0.53351    1.31255    0.43495   1.00
H2       0.55684    1.27599    0.46313   1.00
C5       0.53805    1.32719    0.49685   1.00
H2       0.56955    1.33390    0.50110   1.00
H2       0.52589    1.31540    0.52456   1.00
O_3      0.39955    1.14500    0.48405   1.00
C4       0.41496    1.18600    0.41456   1.00
C3c      0.44918    1.20743    0.42156   1.00
H1       0.47629    1.19225    0.42699   1.00
C3d      0.38006    1.20635    0.40699   1.00
C3       0.44895    1.24854    0.42223   1.00
O2       0.48429    1.26748    0.42451   1.00
C3       0.37957    1.24727    0.40837   1.00
H1       0.35184    1.26157    0.40376   1.00
C2       0.41382    1.26939    0.41583   1.00
C5       0.35940    1.14379    0.49320   1.00
H2       0.34867    1.11338    0.49747   1.00
H2       0.34160    1.15766    0.46972   1.00
C5       0.35356    1.16622    0.53100   1.00
H2       0.36529    1.19629    0.52708   1.00
H2       0.37117    1.15191    0.55430   1.00
C5       0.31030    1.16754    0.54240   1.00
H2       0.29834    1.13760    0.54609   1.00
H2       0.29290    1.18303    0.51978   1.00
H2       0.30671    1.18330    0.57053   1.00
C5       0.33989    1.17605    0.36341   1.00
C5       0.49326    1.27570    0.46394   1.00
H2       0.36330    1.15588    0.35350   1.00
H2       0.33962    1.20212    0.34391   1.00
H2       0.49583    1.24800    0.48086   1.00
H2       0.47039    1.29395    0.47842   1.00
H2       0.52348    1.35555    0.48990   1.00
H2       0.31690    1.10750    0.32008   1.00
H2       0.30269    1.15266    0.29615   1.00
C2       0.41290    1.06105    0.41649   1.00
C3       0.42274    1.08097    0.38179   1.00
O2       0.42219    1.06174    0.34643   1.00
C3       0.40577    1.08326    0.45056   1.00
H1       0.39917    1.06885    0.47782   1.00
C3a      0.42422    1.12213    0.38163   1.00
H1       0.42960    1.13702    0.35433   1.00
C3b      0.40605    1.12422    0.45000   1.00
C4       0.41523    1.14400    0.41535   1.00
O_3      0.34504    1.18667    0.40286   1.00
C5       0.46052    1.05220    0.33481   1.00
H2       0.47894    1.07891    0.33173   1.00
C5       0.45748    1.03166    0.29526   1.00
H2       0.47459    1.03226    0.35632   1.00
H2       0.45365    1.05423    0.27221   1.00
H2       0.43019    1.01399    0.29555   1.00
C5       0.49309    1.00569    0.28619   1.00
H2       0.52029    1.02311    0.28907   1.00
H2       0.49136    0.99391    0.25596   1.00
H2       0.49446    0.97994    0.30619   1.00
C5       0.30079    1.15520    0.36017   1.00
H2       0.27709    1.17718    0.36352   1.00
H2       0.29816    1.13455    0.38515   1.00
C5       0.29670    1.13303    0.32131   1.00
H2       0.26649    1.12166    0.31820   1.00
C5       0.03273    0.96350    0.29761   1.00
H2       0.01745    0.93495    0.29649   1.00
H2       0.05401    0.96313    0.27316   1.00
C5       0.00281    0.99685    0.29195   1.00
H2       -0.00390   1.00110    0.26045   1.00
H2       0.01460    1.02456    0.30411   1.00
O_3      0.18500    0.98405    0.43045   1.00
C4       0.14400    0.91456    0.41504   1.00
C3c      0.12257    0.92156    0.38082   1.00
H1       0.13775    0.92699    0.35371   1.00
C3d      0.12365    0.90699    0.44994   1.00
C3       0.08146    0.92223    0.38105   1.00
O2       0.06252    0.92451    0.34571   1.00
C3       0.08273    0.90837    0.45043   1.00
H1       0.06843    0.90376    0.47816   1.00
C2       0.06061    0.91583    0.41618   1.00
C5       0.18621    0.99320    0.47060   1.00
H2       0.21662    0.99747    0.48133   1.00
H2       0.17234    0.96972    0.48840   1.00
C5       0.16378    1.03100    0.47644   1.00
H2       0.13371    1.02708    0.46471   1.00
H2       0.17809    1.05430    0.45883   1.00
C5       0.16246    1.04240    0.51970   1.00
H2       0.19240    1.04609    0.53166   1.00
H2       0.14697    1.01978    0.53710   1.00
H2       0.14670    1.07053    0.52329   1.00
C5       0.15395    0.86341    0.49011   1.00
C5       0.05430    0.96394    0.33674   1.00
H2       0.17412    0.85350    0.46670   1.00
H2       0.12788    0.84391    0.49038   1.00
H2       0.08200    0.98086    0.33417   1.00
H2       0.03605    0.97842    0.35961   1.00
H2       -0.02555   0.98990    0.30652   1.00
H2       0.22250    0.82008    0.51310   1.00
H2       0.17734    0.79615    0.52731   1.00
C2       0.26895    0.91649    0.41710   1.00
C3       0.24903    0.88179    0.40726   1.00
O2       0.26826    0.84643    0.40781   1.00
C3       0.24674    0.95056    0.42423   1.00
H1       0.26115    0.97782    0.43083   1.00
C3a      0.20787    0.88163    0.40578   1.00
H1       0.19298    0.85433    0.40040   1.00
C3b      0.20578    0.95000    0.42395   1.00
C4       0.18600    0.91535    0.41477   1.00
O_3      0.14333    0.90286    0.48496   1.00
C5       0.27780    0.83481    0.36948   1.00
H2       0.25109    0.83173    0.35106   1.00
C5       0.29834    0.79526    0.37252   1.00
H2       0.29774    0.85632    0.35541   1.00
H2       0.27577    0.77221    0.37635   1.00
H2       0.31601    0.79555    0.39981   1.00
C5       0.32431    0.78619    0.33691   1.00
H2       0.30689    0.78907    0.30971   1.00
H2       0.33609    0.75596    0.33864   1.00
H2       0.35006    0.80619    0.33554   1.00
C5       0.17480    0.86017    0.52921   1.00
H2       0.15282    0.86352    0.55291   1.00
H2       0.19545    0.88515    0.53184   1.00
C5       0.19697    0.82131    0.53330   1.00
H2       0.20834    0.81820    0.56351   1.00
C5       0.79727    0.96350    0.53239   1.00
H2       0.81255    0.93495    0.53351   1.00
H2       0.77599    0.96313    0.55684   1.00
C5       0.82719    0.99685    0.53805   1.00
H2       0.83390    1.00110    0.56955   1.00
H2       0.81540    1.02456    0.52589   1.00
O_3      0.64500    0.98405    0.39955   1.00
C4       0.68600    0.91456    0.41496   1.00
C3c      0.70743    0.92156    0.44918   1.00
H1       0.69225    0.92699    0.47629   1.00
C3d      0.70635    0.90699    0.38006   1.00
C3       0.74854    0.92223    0.44895   1.00
O2       0.76748    0.92451    0.48429   1.00
C3       0.74727    0.90837    0.37957   1.00
H1       0.76157    0.90376    0.35184   1.00
C2       0.76939    0.91583    0.41382   1.00
C5       0.64379    0.99320    0.35940   1.00
H2       0.61338    0.99747    0.34867   1.00
H2       0.65766    0.96972    0.34160   1.00
C5       0.66622    1.03100    0.35356   1.00
H2       0.69629    1.02708    0.36529   1.00
H2       0.65191    1.05430    0.37117   1.00
C5       0.66754    1.04240    0.31030   1.00
H2       0.63760    1.04609    0.29834   1.00
H2       0.68303    1.01978    0.29290   1.00
H2       0.68330    1.07053    0.30671   1.00
C5       0.67605    0.86341    0.33989   1.00
C5       0.77570    0.96394    0.49326   1.00
H2       0.65588    0.85350    0.36330   1.00
H2       0.70212    0.84391    0.33962   1.00
H2       0.74800    0.98086    0.49583   1.00
H2       0.79395    0.97842    0.47039   1.00
H2       0.85555    0.98990    0.52348   1.00
H2       0.60750    0.82008    0.31690   1.00
H2       0.65266    0.79615    0.30269   1.00
C2       0.56105    0.91649    0.41290   1.00
C3       0.58097    0.88179    0.42274   1.00
O2       0.56174    0.84643    0.42219   1.00
C3       0.58326    0.95056    0.40577   1.00
H1       0.56885    0.97782    0.39917   1.00
C3a      0.62213    0.88163    0.42422   1.00
H1       0.63702    0.85433    0.42960   1.00
C3b      0.62422    0.95000    0.40605   1.00
C4       0.64400    0.91535    0.41523   1.00
O_3      0.68667    0.90286    0.34504   1.00
C5       0.55220    0.83481    0.46052   1.00
H2       0.57891    0.83173    0.47894   1.00
C5       0.53166    0.79526    0.45748   1.00
H2       0.53226    0.85632    0.47459   1.00
H2       0.55423    0.77221    0.45365   1.00
H2       0.51399    0.79555    0.43019   1.00
C5       0.50569    0.78619    0.49309   1.00
H2       0.52311    0.78907    0.52029   1.00
H2       0.49391    0.75596    0.49136   1.00
H2       0.47994    0.80619    0.49446   1.00
C5       0.65520    0.86017    0.30079   1.00
H2       0.67718    0.86352    0.27709   1.00
H2       0.63455    0.88515    0.29816   1.00
C5       0.63303    0.82131    0.29670   1.00
H2       0.62166    0.81820    0.26649   1.00
C5       0.29761    0.53273    0.46350   1.00
H2       0.29649    0.51745    0.43495   1.00
H2       0.27316    0.55401    0.46313   1.00
C5       0.29195    0.50281    0.49685   1.00
H2       0.26045    0.49610    0.50110   1.00
H2       0.30411    0.51460    0.52456   1.00
O_3      0.43045    0.68500    0.48405   1.00
C4       0.41504    0.64400    0.41456   1.00
C3c      0.38082    0.62257    0.42156   1.00
H1       0.35371    0.63775    0.42699   1.00
C3d      0.44994    0.62365    0.40699   1.00
C3       0.38105    0.58146    0.42223   1.00
O2       0.34571    0.56252    0.42451   1.00
C3       0.45043    0.58273    0.40837   1.00
H1       0.47816    0.56843    0.40376   1.00
C2       0.41618    0.56061    0.41583   1.00
C5       0.47060    0.68621    0.49320   1.00
H2       0.48133    0.71662    0.49747   1.00
H2       0.48840    0.67234    0.46972   1.00
C5       0.47644    0.66378    0.53100   1.00
H2       0.46471    0.63371    0.52708   1.00
H2       0.45883    0.67809    0.55430   1.00
C5       0.51970    0.66246    0.54240   1.00
H2       0.53166    0.69240    0.54609   1.00
H2       0.53710    0.64697    0.51978   1.00
H2       0.52329    0.64670    0.57053   1.00
C5       0.49011    0.65395    0.36341   1.00
C5       0.33674    0.55430    0.46394   1.00
H2       0.46670    0.67412    0.35350   1.00
H2       0.49038    0.62788    0.34391   1.00
H2       0.33417    0.58200    0.48086   1.00
H2       0.35961    0.53605    0.47842   1.00
H2       0.30652    0.47445    0.48990   1.00
H2       0.51310    0.72250    0.32008   1.00
H2       0.52731    0.67734    0.29615   1.00
C2       0.41710    0.76895    0.41649   1.00
C3       0.40726    0.74903    0.38179   1.00
O2       0.40781    0.76826    0.34643   1.00
C3       0.42423    0.74674    0.45056   1.00
H1       0.43083    0.76115    0.47782   1.00
C3a      0.40578    0.70787    0.38163   1.00
H1       0.40040    0.69298    0.35433   1.00
C3b      0.42395    0.70578    0.45000   1.00
C4       0.41477    0.68600    0.41535   1.00
O_3      0.48496    0.64333    0.40286   1.00
C5       0.36948    0.77780    0.33481   1.00
H2       0.35106    0.75109    0.33173   1.00
C5       0.37252    0.79834    0.29526   1.00
H2       0.35541    0.79774    0.35632   1.00
H2       0.37635    0.77577    0.27221   1.00
H2       0.39981    0.81601    0.29555   1.00
C5       0.33691    0.82431    0.28619   1.00
H2       0.30971    0.80689    0.28907   1.00
H2       0.33864    0.83609    0.25596   1.00
H2       0.33554    0.85006    0.30619   1.00
C5       0.52921    0.67480    0.36017   1.00
H2       0.55291    0.65282    0.36352   1.00
H2       0.53184    0.69545    0.38515   1.00
C5       0.53330    0.69697    0.32131   1.00
H2       0.56351    0.70834    0.31820   1.00
C5       0.46350    0.79761    0.03273   1.00
H2       0.43495    0.79649    0.01745   1.00
H2       0.46313    0.77316    0.05401   1.00
C5       0.49685    0.79195    0.00281   1.00
H2       0.50110    0.76045    -0.00390   1.00
H2       0.52456    0.80411    0.01460   1.00
O_3      0.48405    0.93045    0.18500   1.00
C4       0.41456    0.91504    0.14400   1.00
C3c      0.42156    0.88082    0.12257   1.00
H1       0.42699    0.85371    0.13775   1.00
C3d      0.40699    0.94994    0.12365   1.00
C3       0.42223    0.88105    0.08146   1.00
O2       0.42451    0.84571    0.06252   1.00
C3       0.40837    0.95043    0.08273   1.00
H1       0.40376    0.97816    0.06843   1.00
C2       0.41583    0.91618    0.06061   1.00
C5       0.49320    0.97060    0.18621   1.00
H2       0.49747    0.98133    0.21662   1.00
H2       0.46972    0.98840    0.17234   1.00
C5       0.53100    0.97644    0.16378   1.00
H2       0.52708    0.96471    0.13371   1.00
H2       0.55430    0.95883    0.17809   1.00
C5       0.54240    1.01970    0.16246   1.00
H2       0.54609    1.03166    0.19240   1.00
H2       0.51978    1.03710    0.14697   1.00
H2       0.57053    1.02329    0.14670   1.00
C5       0.36341    0.99011    0.15395   1.00
C5       0.46394    0.83674    0.05430   1.00
H2       0.35350    0.96670    0.17412   1.00
H2       0.34391    0.99038    0.12788   1.00
H2       0.48086    0.83417    0.08200   1.00
H2       0.47842    0.85961    0.03605   1.00
H2       0.48990    0.80652    -0.02555   1.00
H2       0.32008    1.01310    0.22250   1.00
H2       0.29615    1.02731    0.17734   1.00
C2       0.41649    0.91710    0.26895   1.00
C3       0.38179    0.90726    0.24903   1.00
O2       0.34643    0.90781    0.26826   1.00
C3       0.45056    0.92423    0.24674   1.00
H1       0.47782    0.93083    0.26115   1.00
C3a      0.38163    0.90578    0.20787   1.00
H1       0.35433    0.90040    0.19298   1.00
C3b      0.45000    0.92395    0.20578   1.00
C4       0.41535    0.91477    0.18600   1.00
O_3      0.40286    0.98496    0.14333   1.00
C5       0.33481    0.86948    0.27780   1.00
H2       0.33173    0.85106    0.25109   1.00
C5       0.29526    0.87252    0.29834   1.00
H2       0.35632    0.85541    0.29774   1.00
H2       0.27221    0.87635    0.27577   1.00
H2       0.29555    0.89981    0.31601   1.00
C5       0.28619    0.83691    0.32431   1.00
H2       0.28907    0.80971    0.30689   1.00
H2       0.25596    0.83864    0.33609   1.00
H2       0.30619    0.83554    0.35006   1.00
C5       0.36017    1.02921    0.17480   1.00
H2       0.36352    1.05291    0.15282   1.00
H2       0.38515    1.03184    0.19545   1.00
C5       0.32131    1.03330    0.19697   1.00
H2       0.31820    1.06351    0.20834   1.00
C5       0.96350    0.53239    0.79727   1.00
H2       0.93495    0.53351    0.81255   1.00
H2       0.96313    0.55684    0.77599   1.00
C5       0.99685    0.53805    0.82719   1.00
H2       1.00110    0.56955    0.83390   1.00
H2       1.02456    0.52589    0.81540   1.00
O_3      0.98405    0.39955    0.64500   1.00
C4       0.91456    0.41496    0.68600   1.00
C3c      0.92156    0.44918    0.70743   1.00
H1       0.92699    0.47629    0.69225   1.00
C3d      0.90699    0.38006    0.70635   1.00
C3       0.92223    0.44895    0.74854   1.00
O2       0.92451    0.48429    0.76748   1.00
C3       0.90837    0.37957    0.74727   1.00
H1       0.90376    0.35184    0.76157   1.00
C2       0.91583    0.41382    0.76939   1.00
C5       0.99320    0.35940    0.64379   1.00
H2       0.99747    0.34867    0.61338   1.00
H2       0.96972    0.34160    0.65766   1.00
C5       1.03100    0.35356    0.66622   1.00
H2       1.02708    0.36529    0.69629   1.00
H2       1.05430    0.37117    0.65191   1.00
C5       1.04240    0.31030    0.66754   1.00
H2       1.04609    0.29834    0.63760   1.00
H2       1.01978    0.29290    0.68303   1.00
H2       1.07053    0.30671    0.68330   1.00
C5       0.86341    0.33989    0.67605   1.00
C5       0.96394    0.49326    0.77570   1.00
H2       0.85350    0.36330    0.65588   1.00
H2       0.84391    0.33962    0.70212   1.00
H2       0.98086    0.49583    0.74800   1.00
H2       0.97842    0.47039    0.79395   1.00
H2       0.98990    0.52348    0.85555   1.00
H2       0.82008    0.31690    0.60750   1.00
H2       0.79615    0.30269    0.65266   1.00
C2       0.91649    0.41290    0.56105   1.00
C3       0.88179    0.42274    0.58097   1.00
O2       0.84643    0.42219    0.56174   1.00
C3       0.95056    0.40577    0.58326   1.00
H1       0.97782    0.39917    0.56885   1.00
C3a      0.88163    0.42422    0.62213   1.00
H1       0.85433    0.42960    0.63702   1.00
C3b      0.95000    0.40605    0.62422   1.00
C4       0.91535    0.41523    0.64400   1.00
O_3      0.90286    0.34504    0.68667   1.00
C5       0.83481    0.46052    0.55220   1.00
H2       0.83173    0.47894    0.57891   1.00
C5       0.79526    0.45748    0.53166   1.00
H2       0.85632    0.47459    0.53226   1.00
H2       0.77221    0.45365    0.55423   1.00
H2       0.79555    0.43019    0.51399   1.00
C5       0.78619    0.49309    0.50569   1.00
H2       0.78907    0.52029    0.52311   1.00
H2       0.75596    0.49136    0.49391   1.00
H2       0.80619    0.49446    0.47994   1.00
C5       0.86017    0.30079    0.65520   1.00
H2       0.86352    0.27709    0.67718   1.00
H2       0.88515    0.29816    0.63455   1.00
C5       0.82131    0.29670    0.63303   1.00
H2       0.81820    0.26649    0.62166   1.00
C5       1.03239    0.79727    0.46350   1.00
H2       1.03351    0.81255    0.43495   1.00
H2       1.05684    0.77599    0.46313   1.00
C5       1.03805    0.82719    0.49685   1.00
H2       1.06955    0.83390    0.50110   1.00
H2       1.02589    0.81540    0.52456   1.00
O_3      0.89955    0.64500    0.48405   1.00
C4       0.91496    0.68600    0.41456   1.00
C3c      0.94918    0.70743    0.42156   1.00
H1       0.97629    0.69225    0.42699   1.00
C3d      0.88006    0.70635    0.40699   1.00
C3       0.94895    0.74854    0.42223   1.00
O2       0.98429    0.76748    0.42451   1.00
C3       0.87957    0.74727    0.40837   1.00
H1       0.85184    0.76157    0.40376   1.00
C2       0.91382    0.76939    0.41583   1.00
C5       0.85940    0.64379    0.49320   1.00
H2       0.84867    0.61338    0.49747   1.00
H2       0.84160    0.65766    0.46972   1.00
C5       0.85356    0.66622    0.53100   1.00
H2       0.86529    0.69629    0.52708   1.00
H2       0.87117    0.65191    0.55430   1.00
C5       0.81030    0.66754    0.54240   1.00
H2       0.79834    0.63760    0.54609   1.00
H2       0.79290    0.68303    0.51978   1.00
H2       0.80671    0.68330    0.57053   1.00
C5       0.83989    0.67605    0.36341   1.00
C5       0.99326    0.77570    0.46394   1.00
H2       0.86330    0.65588    0.35350   1.00
H2       0.83962    0.70212    0.34391   1.00
H2       0.99583    0.74800    0.48086   1.00
H2       0.97039    0.79395    0.47842   1.00
H2       1.02348    0.85555    0.48990   1.00
H2       0.81690    0.60750    0.32008   1.00
H2       0.80269    0.65266    0.29615   1.00
C2       0.91290    0.56105    0.41649   1.00
C3       0.92274    0.58097    0.38179   1.00
O2       0.92219    0.56174    0.34643   1.00
C3       0.90577    0.58326    0.45056   1.00
H1       0.89917    0.56885    0.47782   1.00
C3a      0.92422    0.62213    0.38163   1.00
H1       0.92960    0.63702    0.35433   1.00
C3b      0.90605    0.62422    0.45000   1.00
C4       0.91523    0.64400    0.41535   1.00
O_3      0.84504    0.68667    0.40286   1.00
C5       0.96052    0.55220    0.33481   1.00
H2       0.97894    0.57891    0.33173   1.00
C5       0.95748    0.53166    0.29526   1.00
H2       0.97459    0.53226    0.35632   1.00
H2       0.95365    0.55423    0.27221   1.00
H2       0.93019    0.51399    0.29555   1.00
C5       0.99309    0.50569    0.28619   1.00
H2       1.02029    0.52311    0.28907   1.00
H2       0.99136    0.49391    0.25596   1.00
H2       0.99446    0.47994    0.30619   1.00
C5       0.80079    0.65520    0.36017   1.00
H2       0.77709    0.67718    0.36352   1.00
H2       0.79816    0.63455    0.38515   1.00
C5       0.79670    0.63303    0.32131   1.00
H2       0.76649    0.62166    0.31820   1.00
C5       0.53273    0.46350    0.29761   1.00
H2       0.51745    0.43495    0.29649   1.00
H2       0.55401    0.46313    0.27316   1.00
C5       0.50281    0.49685    0.29195   1.00
H2       0.49610    0.50110    0.26045   1.00
H2       0.51460    0.52456    0.30411   1.00
O_3      0.68500    0.48405    0.43045   1.00
C4       0.64400    0.41456    0.41504   1.00
C3c      0.62257    0.42156    0.38082   1.00
H1       0.63775    0.42699    0.35371   1.00
C3d      0.62365    0.40699    0.44994   1.00
C3       0.58146    0.42223    0.38105   1.00
O2       0.56252    0.42451    0.34571   1.00
C3       0.58273    0.40837    0.45043   1.00
H1       0.56843    0.40376    0.47816   1.00
C2       0.56061    0.41583    0.41618   1.00
C5       0.68621    0.49320    0.47060   1.00
H2       0.71662    0.49747    0.48133   1.00
H2       0.67234    0.46972    0.48840   1.00
C5       0.66378    0.53100    0.47644   1.00
H2       0.63371    0.52708    0.46471   1.00
H2       0.67809    0.55430    0.45883   1.00
C5       0.66246    0.54240    0.51970   1.00
H2       0.69240    0.54609    0.53166   1.00
H2       0.64697    0.51978    0.53710   1.00
H2       0.64670    0.57053    0.52329   1.00
C5       0.65395    0.36341    0.49011   1.00
C5       0.55430    0.46394    0.33674   1.00
H2       0.67412    0.35350    0.46670   1.00
H2       0.62788    0.34391    0.49038   1.00
H2       0.58200    0.48086    0.33417   1.00
H2       0.53605    0.47842    0.35961   1.00
H2       0.47445    0.48990    0.30652   1.00
H2       0.72250    0.32008    0.51310   1.00
H2       0.67734    0.29615    0.52731   1.00
C2       0.76895    0.41649    0.41710   1.00
C3       0.74903    0.38179    0.40726   1.00
O2       0.76826    0.34643    0.40781   1.00
C3       0.74674    0.45056    0.42423   1.00
H1       0.76115    0.47782    0.43083   1.00
C3a      0.70787    0.38163    0.40578   1.00
H1       0.69298    0.35433    0.40040   1.00
C3b      0.70578    0.45000    0.42395   1.00
C4       0.68600    0.41535    0.41477   1.00
O_3      0.64333    0.40286    0.48496   1.00
C5       0.77780    0.33481    0.36948   1.00
H2       0.75109    0.33173    0.35106   1.00
C5       0.79834    0.29526    0.37252   1.00
H2       0.79774    0.35632    0.35541   1.00
H2       0.77577    0.27221    0.37635   1.00
H2       0.81601    0.29555    0.39981   1.00
C5       0.82431    0.28619    0.33691   1.00
H2       0.80689    0.28907    0.30971   1.00
H2       0.83609    0.25596    0.33864   1.00
H2       0.85006    0.30619    0.33554   1.00
C5       0.67480    0.36017    0.52921   1.00
H2       0.65282    0.36352    0.55291   1.00
H2       0.69545    0.38515    0.53184   1.00
C5       0.69697    0.32131    0.53330   1.00
H2       0.70834    0.31820    0.56351   1.00
C5       1.29727    0.46350    0.53239   1.00
H2       1.31255    0.43495    0.53351   1.00
H2       1.27599    0.46313    0.55684   1.00
C5       1.32719    0.49685    0.53805   1.00
H2       1.33390    0.50110    0.56955   1.00
H2       1.31540    0.52456    0.52589   1.00
O_3      1.14500    0.48405    0.39955   1.00
C4       1.18600    0.41456    0.41496   1.00
C3c      1.20743    0.42156    0.44918   1.00
H1       1.19225    0.42699    0.47629   1.00
C3d      1.20635    0.40699    0.38006   1.00
C3       1.24854    0.42223    0.44895   1.00
O2       1.26748    0.42451    0.48429   1.00
C3       1.24727    0.40837    0.37957   1.00
H1       1.26157    0.40376    0.35184   1.00
C2       1.26939    0.41583    0.41382   1.00
C5       1.14379    0.49320    0.35940   1.00
H2       1.11338    0.49747    0.34867   1.00
H2       1.15766    0.46972    0.34160   1.00
C5       1.16622    0.53100    0.35356   1.00
H2       1.19629    0.52708    0.36529   1.00
H2       1.15191    0.55430    0.37117   1.00
C5       1.16754    0.54240    0.31030   1.00
H2       1.13760    0.54609    0.29834   1.00
H2       1.18303    0.51978    0.29290   1.00
H2       1.18330    0.57053    0.30671   1.00
C5       1.17605    0.36341    0.33989   1.00
C5       1.27570    0.46394    0.49326   1.00
H2       1.15588    0.35350    0.36330   1.00
H2       1.20212    0.34391    0.33962   1.00
H2       1.24800    0.48086    0.49583   1.00
H2       1.29395    0.47842    0.47039   1.00
H2       1.35555    0.48990    0.52348   1.00
H2       1.10750    0.32008    0.31690   1.00
H2       1.15266    0.29615    0.30269   1.00
C2       1.06105    0.41649    0.41290   1.00
C3       1.08097    0.38179    0.42274   1.00
O2       1.06174    0.34643    0.42219   1.00
C3       1.08326    0.45056    0.40577   1.00
H1       1.06885    0.47782    0.39917   1.00
C3a      1.12213    0.38163    0.42422   1.00
H1       1.13702    0.35433    0.42960   1.00
C3b      1.12422    0.45000    0.40605   1.00
C4       1.14400    0.41535    0.41523   1.00
O_3      1.18667    0.40286    0.34504   1.00
C5       1.05220    0.33481    0.46052   1.00
H2       1.07891    0.33173    0.47894   1.00
C5       1.03166    0.29526    0.45748   1.00
H2       1.03226    0.35632    0.47459   1.00
H2       1.05423    0.27221    0.45365   1.00
H2       1.01399    0.29555    0.43019   1.00
C5       1.00569    0.28619    0.49309   1.00
H2       1.02311    0.28907    0.52029   1.00
H2       0.99391    0.25596    0.49136   1.00
H2       0.97994    0.30619    0.49446   1.00
C5       1.15520    0.36017    0.30079   1.00
H2       1.17718    0.36352    0.27709   1.00
H2       1.13455    0.38515    0.29816   1.00
C5       1.13303    0.32131    0.29670   1.00
H2       1.12166    0.31820    0.26649   1.00
C5       0.79761    0.03273    0.46350   1.00
H2       0.79649    0.01745    0.43495   1.00
H2       0.77316    0.05401    0.46313   1.00
C5       0.79195    0.00281    0.49685   1.00
H2       0.76045    -0.00390   0.50110   1.00
H2       0.80411    0.01460    0.52456   1.00
O_3      0.93045    0.18500    0.48405   1.00
C4       0.91504    0.14400    0.41456   1.00
C3c      0.88082    0.12257    0.42156   1.00
H1       0.85371    0.13775    0.42699   1.00
C3d      0.94994    0.12365    0.40699   1.00
C3       0.88105    0.08146    0.42223   1.00
O2       0.84571    0.06252    0.42451   1.00
C3       0.95043    0.08273    0.40837   1.00
H1       0.97816    0.06843    0.40376   1.00
C2       0.91618    0.06061    0.41583   1.00
C5       0.97060    0.18621    0.49320   1.00
H2       0.98133    0.21662    0.49747   1.00
H2       0.98840    0.17234    0.46972   1.00
C5       0.97644    0.16378    0.53100   1.00
H2       0.96471    0.13371    0.52708   1.00
H2       0.95883    0.17809    0.55430   1.00
C5       1.01970    0.16246    0.54240   1.00
H2       1.03166    0.19240    0.54609   1.00
H2       1.03710    0.14697    0.51978   1.00
H2       1.02329    0.14670    0.57053   1.00
C5       0.99011    0.15395    0.36341   1.00
C5       0.83674    0.05430    0.46394   1.00
H2       0.96670    0.17412    0.35350   1.00
H2       0.99038    0.12788    0.34391   1.00
H2       0.83417    0.08200    0.48086   1.00
H2       0.85961    0.03605    0.47842   1.00
H2       0.80652    -0.02555   0.48990   1.00
H2       1.01310    0.22250    0.32008   1.00
H2       1.02731    0.17734    0.29615   1.00
C2       0.91710    0.26895    0.41649   1.00
C3       0.90726    0.24903    0.38179   1.00
O2       0.90781    0.26826    0.34643   1.00
C3       0.92423    0.24674    0.45056   1.00
H1       0.93083    0.26115    0.47782   1.00
C3a      0.90578    0.20787    0.38163   1.00
H1       0.90040    0.19298    0.35433   1.00
C3b      0.92395    0.20578    0.45000   1.00
C4       0.91477    0.18600    0.41535   1.00
O_3      0.98496    0.14333    0.40286   1.00
C5       0.86948    0.27780    0.33481   1.00
H2       0.85106    0.25109    0.33173   1.00
C5       0.87252    0.29834    0.29526   1.00
H2       0.85541    0.29774    0.35632   1.00
H2       0.87635    0.27577    0.27221   1.00
H2       0.89981    0.31601    0.29555   1.00
C5       0.83691    0.32431    0.28619   1.00
H2       0.80971    0.30689    0.28907   1.00
H2       0.83864    0.33609    0.25596   1.00
H2       0.83554    0.35006    0.30619   1.00
C5       1.02921    0.17480    0.36017   1.00
H2       1.05291    0.15282    0.36352   1.00
H2       1.03184    0.19545    0.38515   1.00
C5       1.03330    0.19697    0.32131   1.00
H2       1.06351    0.20834    0.31820   1.00
C5       0.96350    0.29761    0.03273   1.00
H2       0.93495    0.29649    0.01745   1.00
H2       0.96313    0.27316    0.05401   1.00
C5       0.99685    0.29195    0.00281   1.00
H2       1.00110    0.26045    -0.00390   1.00
H2       1.02456    0.30411    0.01460   1.00
O_3      0.98405    0.43045    0.18500   1.00
C4       0.91456    0.41504    0.14400   1.00
C3c      0.92156    0.38082    0.12257   1.00
H1       0.92699    0.35371    0.13775   1.00
C3d      0.90699    0.44994    0.12365   1.00
C3       0.92223    0.38105    0.08146   1.00
O2       0.92451    0.34571    0.06252   1.00
C3       0.90837    0.45043    0.08273   1.00
H1       0.90376    0.47816    0.06843   1.00
C2       0.91583    0.41618    0.06061   1.00
C5       0.99320    0.47060    0.18621   1.00
H2       0.99747    0.48133    0.21662   1.00
H2       0.96972    0.48840    0.17234   1.00
C5       1.03100    0.47644    0.16378   1.00
H2       1.02708    0.46471    0.13371   1.00
H2       1.05430    0.45883    0.17809   1.00
C5       1.04240    0.51970    0.16246   1.00
H2       1.04609    0.53166    0.19240   1.00
H2       1.01978    0.53710    0.14697   1.00
H2       1.07053    0.52329    0.14670   1.00
C5       0.86341    0.49011    0.15395   1.00
C5       0.96394    0.33674    0.05430   1.00
H2       0.85350    0.46670    0.17412   1.00
H2       0.84391    0.49038    0.12788   1.00
H2       0.98086    0.33417    0.08200   1.00
H2       0.97842    0.35961    0.03605   1.00
H2       0.98990    0.30652    -0.02555   1.00
H2       0.82008    0.51310    0.22250   1.00
H2       0.79615    0.52731    0.17734   1.00
C2       0.91649    0.41710    0.26895   1.00
C3       0.88179    0.40726    0.24903   1.00
O2       0.84643    0.40781    0.26826   1.00
C3       0.95056    0.42423    0.24674   1.00
H1       0.97782    0.43083    0.26115   1.00
C3a      0.88163    0.40578    0.20787   1.00
H1       0.85433    0.40040    0.19298   1.00
C3b      0.95000    0.42395    0.20578   1.00
C4       0.91535    0.41477    0.18600   1.00
O_3      0.90286    0.48496    0.14333   1.00
C5       0.83481    0.36948    0.27780   1.00
H2       0.83173    0.35106    0.25109   1.00
C5       0.79526    0.37252    0.29834   1.00
H2       0.85632    0.35541    0.29774   1.00
H2       0.77221    0.37635    0.27577   1.00
H2       0.79555    0.39981    0.31601   1.00
C5       0.78619    0.33691    0.32431   1.00
H2       0.78907    0.30971    0.30689   1.00
H2       0.75596    0.33864    0.33609   1.00
H2       0.80619    0.33554    0.35006   1.00
C5       0.86017    0.52921    0.17480   1.00
H2       0.86352    0.55291    0.15282   1.00
H2       0.88515    0.53184    0.19545   1.00
C5       0.82131    0.53330    0.19697   1.00
H2       0.81820    0.56351    0.20834   1.00
