data_IRMOF10_SG202_interpen_Ligand9cp_label_h.

_audit_creation_method             'generated by an auxiliary program of Tobunporous'

_symmetry_space_group_name_H-M     'P 1'
_symmetry_Int_Tables_number        1
_symmetry_cell_setting             triclinic

_cell_length_a                    34.2800
_cell_length_b                    34.2800
_cell_length_c                    34.2800
_cell_angle_alpha                 90.0000
_cell_angle_beta                  90.0000
_cell_angle_gamma                 90.0000

loop_
_atom_site_label
_atom_site_fract_x
_atom_site_fract_y
_atom_site_fract_z
_atom_site_occupancy
O1       0.75000    0.75000    0.75000   1.00
Zn1      0.71720    0.78280    0.78280   1.00
Zn1      0.78280    0.71720    0.78280   1.00
Zn1      0.78280    0.78280    0.71720   1.00
Zn1      0.71720    0.71720    0.71720   1.00
O2       0.72650    0.77350    0.83820   1.00
O2       0.72650    0.83820    0.77350   1.00
O2       0.66180    0.77350    0.77350   1.00
O2       0.77350    0.72650    0.83820   1.00
O2       0.83820    0.72650    0.77350   1.00
O2       0.77350    0.66180    0.77350   1.00
O2       0.77350    0.83820    0.72650   1.00
O2       0.83820    0.77350    0.72650   1.00
O2       0.77350    0.77350    0.66180   1.00
O2       0.66180    0.72650    0.72650   1.00
O2       0.72650    0.66180    0.72650   1.00
O2       0.72650    0.72650    0.66180   1.00
C1       0.75000    0.75000    0.85520   1.00
C1       0.75000    0.85520    0.75000   1.00
C1       0.64480    0.75000    0.75000   1.00
C1       0.85520    0.75000    0.75000   1.00
C1       0.75000    0.64480    0.75000   1.00
C1       0.75000    0.75000    0.64480   1.00
O1       0.25000    0.25000    0.75000   1.00
Zn1      0.21720    0.28280    0.78280   1.00
Zn1      0.28280    0.21720    0.78280   1.00
Zn1      0.28280    0.28280    0.71720   1.00
Zn1      0.21720    0.21720    0.71720   1.00
O2       0.22650    0.27350    0.83820   1.00
O2       0.22650    0.33820    0.77350   1.00
O2       0.16180    0.27350    0.77350   1.00
O2       0.27350    0.22650    0.83820   1.00
O2       0.33820    0.22650    0.77350   1.00
O2       0.27350    0.16180    0.77350   1.00
O2       0.27350    0.33820    0.72650   1.00
O2       0.33820    0.27350    0.72650   1.00
O2       0.27350    0.27350    0.66180   1.00
O2       0.16180    0.22650    0.72650   1.00
O2       0.22650    0.16180    0.72650   1.00
O2       0.22650    0.22650    0.66180   1.00
C1       0.25000    0.25000    0.85520   1.00
C1       0.25000    0.35520    0.75000   1.00
C1       0.14480    0.25000    0.75000   1.00
C1       0.35520    0.25000    0.75000   1.00
C1       0.25000    0.14480    0.75000   1.00
C1       0.25000    0.25000    0.64480   1.00
O1       0.25000    0.75000    0.25000   1.00
Zn1      0.21720    0.78280    0.28280   1.00
Zn1      0.28280    0.71720    0.28280   1.00
Zn1      0.28280    0.78280    0.21720   1.00
Zn1      0.21720    0.71720    0.21720   1.00
O2       0.22650    0.77350    0.33820   1.00
O2       0.22650    0.83820    0.27350   1.00
O2       0.16180    0.77350    0.27350   1.00
O2       0.27350    0.72650    0.33820   1.00
O2       0.33820    0.72650    0.27350   1.00
O2       0.27350    0.66180    0.27350   1.00
O2       0.27350    0.83820    0.22650   1.00
O2       0.33820    0.77350    0.22650   1.00
O2       0.27350    0.77350    0.16180   1.00
O2       0.16180    0.72650    0.22650   1.00
O2       0.22650    0.66180    0.22650   1.00
O2       0.22650    0.72650    0.16180   1.00
C1       0.25000    0.75000    0.35520   1.00
C1       0.25000    0.85520    0.25000   1.00
C1       0.14480    0.75000    0.25000   1.00
C1       0.35520    0.75000    0.25000   1.00
C1       0.25000    0.64480    0.25000   1.00
C1       0.25000    0.75000    0.14480   1.00
O1       0.75000    0.25000    0.25000   1.00
Zn1      0.71720    0.28280    0.28280   1.00
Zn1      0.78280    0.21720    0.28280   1.00
Zn1      0.78280    0.28280    0.21720   1.00
Zn1      0.71720    0.21720    0.21720   1.00
O2       0.72650    0.27350    0.33820   1.00
O2       0.72650    0.33820    0.27350   1.00
O2       0.66180    0.27350    0.27350   1.00
O2       0.77350    0.22650    0.33820   1.00
O2       0.83820    0.22650    0.27350   1.00
O2       0.77350    0.16180    0.27350   1.00
O2       0.77350    0.33820    0.22650   1.00
O2       0.83820    0.27350    0.22650   1.00
O2       0.77350    0.27350    0.16180   1.00
O2       0.66180    0.22650    0.22650   1.00
O2       0.72650    0.16180    0.22650   1.00
O2       0.72650    0.22650    0.16180   1.00
C1       0.75000    0.25000    0.35520   1.00
C1       0.75000    0.35520    0.25000   1.00
C1       0.64480    0.25000    0.25000   1.00
C1       0.85520    0.25000    0.25000   1.00
C1       0.75000    0.14480    0.25000   1.00
C1       0.75000    0.25000    0.14480   1.00
O1       0.25000    0.25000    0.25000   1.00
Zn1      0.28280    0.21720    0.21720   1.00
Zn1      0.21720    0.28280    0.21720   1.00
Zn1      0.21720    0.21720    0.28280   1.00
Zn1      0.28280    0.28280    0.28280   1.00
O2       0.27350    0.22650    0.16180   1.00
O2       0.27350    0.16180    0.22650   1.00
O2       0.33820    0.22650    0.22650   1.00
O2       0.22650    0.27350    0.16180   1.00
O2       0.16180    0.27350    0.22650   1.00
O2       0.22650    0.33820    0.22650   1.00
O2       0.22650    0.16180    0.27350   1.00
O2       0.16180    0.22650    0.27350   1.00
O2       0.22650    0.22650    0.33820   1.00
O2       0.33820    0.27350    0.27350   1.00
O2       0.27350    0.33820    0.27350   1.00
O2       0.27350    0.27350    0.33820   1.00
C1       0.25000    0.25000    0.14480   1.00
C1       0.25000    0.14480    0.25000   1.00
C1       0.35520    0.25000    0.25000   1.00
C1       0.14480    0.25000    0.25000   1.00
C1       0.25000    0.35520    0.25000   1.00
C1       0.25000    0.25000    0.35520   1.00
O1       0.75000    0.75000    0.25000   1.00
Zn1      0.78280    0.71720    0.21720   1.00
Zn1      0.71720    0.78280    0.21720   1.00
Zn1      0.71720    0.71720    0.28280   1.00
Zn1      0.78280    0.78280    0.28280   1.00
O2       0.77350    0.72650    0.16180   1.00
O2       0.77350    0.66180    0.22650   1.00
O2       0.83820    0.72650    0.22650   1.00
O2       0.72650    0.77350    0.16180   1.00
O2       0.66180    0.77350    0.22650   1.00
O2       0.72650    0.83820    0.22650   1.00
O2       0.72650    0.66180    0.27350   1.00
O2       0.66180    0.72650    0.27350   1.00
O2       0.72650    0.72650    0.33820   1.00
O2       0.83820    0.77350    0.27350   1.00
O2       0.77350    0.83820    0.27350   1.00
O2       0.77350    0.77350    0.33820   1.00
C1       0.75000    0.75000    0.14480   1.00
C1       0.75000    0.64480    0.25000   1.00
C1       0.85520    0.75000    0.25000   1.00
C1       0.64480    0.75000    0.25000   1.00
C1       0.75000    0.85520    0.25000   1.00
C1       0.75000    0.75000    0.35520   1.00
O1       0.75000    0.25000    0.75000   1.00
Zn1      0.78280    0.21720    0.71720   1.00
Zn1      0.71720    0.28280    0.71720   1.00
Zn1      0.71720    0.21720    0.78280   1.00
Zn1      0.78280    0.28280    0.78280   1.00
O2       0.77350    0.22650    0.66180   1.00
O2       0.77350    0.16180    0.72650   1.00
O2       0.83820    0.22650    0.72650   1.00
O2       0.72650    0.27350    0.66180   1.00
O2       0.66180    0.27350    0.72650   1.00
O2       0.72650    0.33820    0.72650   1.00
O2       0.72650    0.16180    0.77350   1.00
O2       0.66180    0.22650    0.77350   1.00
O2       0.72650    0.22650    0.83820   1.00
O2       0.83820    0.27350    0.77350   1.00
O2       0.77350    0.33820    0.77350   1.00
O2       0.77350    0.27350    0.83820   1.00
C1       0.75000    0.25000    0.64480   1.00
C1       0.75000    0.14480    0.75000   1.00
C1       0.85520    0.25000    0.75000   1.00
C1       0.64480    0.25000    0.75000   1.00
C1       0.75000    0.35520    0.75000   1.00
C1       0.75000    0.25000    0.85520   1.00
O1       0.25000    0.75000    0.75000   1.00
Zn1      0.28280    0.71720    0.71720   1.00
Zn1      0.21720    0.78280    0.71720   1.00
Zn1      0.21720    0.71720    0.78280   1.00
Zn1      0.28280    0.78280    0.78280   1.00
O2       0.27350    0.72650    0.66180   1.00
O2       0.27350    0.66180    0.72650   1.00
O2       0.33820    0.72650    0.72650   1.00
O2       0.22650    0.77350    0.66180   1.00
O2       0.16180    0.77350    0.72650   1.00
O2       0.22650    0.83820    0.72650   1.00
O2       0.22650    0.66180    0.77350   1.00
O2       0.16180    0.72650    0.77350   1.00
O2       0.22650    0.72650    0.83820   1.00
O2       0.33820    0.77350    0.77350   1.00
O2       0.27350    0.83820    0.77350   1.00
O2       0.27350    0.77350    0.83820   1.00
C1       0.25000    0.75000    0.64480   1.00
C1       0.25000    0.64480    0.75000   1.00
C1       0.35520    0.75000    0.75000   1.00
C1       0.14480    0.75000    0.75000   1.00
C1       0.25000    0.85520    0.75000   1.00
C1       0.25000    0.75000    0.85520   1.00
O1       0.91500    0.91500    0.91500   1.00
Zn1      0.88220    0.94780    0.94780   1.00
Zn1      0.94780    0.88220    0.94780   1.00
Zn1      0.94780    0.94780    0.88220   1.00
Zn1      0.88220    0.88220    0.88220   1.00
O2       0.89150    0.93850    1.00320   1.00
O2       0.89150    1.00320    0.93850   1.00
O2       0.82680    0.93850    0.93850   1.00
O2       0.93850    0.89150    1.00320   1.00
O2       1.00320    0.89150    0.93850   1.00
O2       0.93850    0.82680    0.93850   1.00
O2       0.93850    1.00320    0.89150   1.00
O2       1.00320    0.93850    0.89150   1.00
O2       0.93850    0.93850    0.82680   1.00
O2       0.82680    0.89150    0.89150   1.00
O2       0.89150    0.82680    0.89150   1.00
O2       0.89150    0.89150    0.82680   1.00
C1       0.91500    0.91500    1.02020   1.00
C1       0.91500    1.02020    0.91500   1.00
C1       0.80980    0.91500    0.91500   1.00
C1       1.02020    0.91500    0.91500   1.00
C1       0.91500    0.80980    0.91500   1.00
C1       0.91500    0.91500    0.80980   1.00
O1       0.41500    0.41500    0.91500   1.00
Zn1      0.38220    0.44780    0.94780   1.00
Zn1      0.44780    0.38220    0.94780   1.00
Zn1      0.44780    0.44780    0.88220   1.00
Zn1      0.38220    0.38220    0.88220   1.00
O2       0.39150    0.43850    1.00320   1.00
O2       0.39150    0.50320    0.93850   1.00
O2       0.32680    0.43850    0.93850   1.00
O2       0.43850    0.39150    1.00320   1.00
O2       0.50320    0.39150    0.93850   1.00
O2       0.43850    0.32680    0.93850   1.00
O2       0.43850    0.50320    0.89150   1.00
O2       0.50320    0.43850    0.89150   1.00
O2       0.43850    0.43850    0.82680   1.00
O2       0.32680    0.39150    0.89150   1.00
O2       0.39150    0.32680    0.89150   1.00
O2       0.39150    0.39150    0.82680   1.00
C1       0.41500    0.41500    1.02020   1.00
C1       0.41500    0.52020    0.91500   1.00
C1       0.30980    0.41500    0.91500   1.00
C1       0.52020    0.41500    0.91500   1.00
C1       0.41500    0.30980    0.91500   1.00
C1       0.41500    0.41500    0.80980   1.00
O1       0.41500    0.91500    0.41500   1.00
Zn1      0.38220    0.94780    0.44780   1.00
Zn1      0.44780    0.88220    0.44780   1.00
Zn1      0.44780    0.94780    0.38220   1.00
Zn1      0.38220    0.88220    0.38220   1.00
O2       0.39150    0.93850    0.50320   1.00
O2       0.39150    1.00320    0.43850   1.00
O2       0.32680    0.93850    0.43850   1.00
O2       0.43850    0.89150    0.50320   1.00
O2       0.50320    0.89150    0.43850   1.00
O2       0.43850    0.82680    0.43850   1.00
O2       0.43850    1.00320    0.39150   1.00
O2       0.50320    0.93850    0.39150   1.00
O2       0.43850    0.93850    0.32680   1.00
O2       0.32680    0.89150    0.39150   1.00
O2       0.39150    0.82680    0.39150   1.00
O2       0.39150    0.89150    0.32680   1.00
C1       0.41500    0.91500    0.52020   1.00
C1       0.41500    1.02020    0.41500   1.00
C1       0.30980    0.91500    0.41500   1.00
C1       0.52020    0.91500    0.41500   1.00
C1       0.41500    0.80980    0.41500   1.00
C1       0.41500    0.91500    0.30980   1.00
O1       0.91500    0.41500    0.41500   1.00
Zn1      0.88220    0.44780    0.44780   1.00
Zn1      0.94780    0.38220    0.44780   1.00
Zn1      0.94780    0.44780    0.38220   1.00
Zn1      0.88220    0.38220    0.38220   1.00
O2       0.89150    0.43850    0.50320   1.00
O2       0.89150    0.50320    0.43850   1.00
O2       0.82680    0.43850    0.43850   1.00
O2       0.93850    0.39150    0.50320   1.00
O2       1.00320    0.39150    0.43850   1.00
O2       0.93850    0.32680    0.43850   1.00
O2       0.93850    0.50320    0.39150   1.00
O2       1.00320    0.43850    0.39150   1.00
O2       0.93850    0.43850    0.32680   1.00
O2       0.82680    0.39150    0.39150   1.00
O2       0.89150    0.32680    0.39150   1.00
O2       0.89150    0.39150    0.32680   1.00
C1       0.91500    0.41500    0.52020   1.00
C1       0.91500    0.52020    0.41500   1.00
C1       0.80980    0.41500    0.41500   1.00
C1       1.02020    0.41500    0.41500   1.00
C1       0.91500    0.30980    0.41500   1.00
C1       0.91500    0.41500    0.30980   1.00
O1       0.41500    0.41500    0.41500   1.00
Zn1      0.44780    0.38220    0.38220   1.00
Zn1      0.38220    0.44780    0.38220   1.00
Zn1      0.38220    0.38220    0.44780   1.00
Zn1      0.44780    0.44780    0.44780   1.00
O2       0.43850    0.39150    0.32680   1.00
O2       0.43850    0.32680    0.39150   1.00
O2       0.50320    0.39150    0.39150   1.00
O2       0.39150    0.43850    0.32680   1.00
O2       0.32680    0.43850    0.39150   1.00
O2       0.39150    0.50320    0.39150   1.00
O2       0.39150    0.32680    0.43850   1.00
O2       0.32680    0.39150    0.43850   1.00
O2       0.39150    0.39150    0.50320   1.00
O2       0.50320    0.43850    0.43850   1.00
O2       0.43850    0.50320    0.43850   1.00
O2       0.43850    0.43850    0.50320   1.00
C1       0.41500    0.41500    0.30980   1.00
C1       0.41500    0.30980    0.41500   1.00
C1       0.52020    0.41500    0.41500   1.00
C1       0.30980    0.41500    0.41500   1.00
C1       0.41500    0.52020    0.41500   1.00
C1       0.41500    0.41500    0.52020   1.00
O1       0.91500    0.91500    0.41500   1.00
Zn1      0.94780    0.88220    0.38220   1.00
Zn1      0.88220    0.94780    0.38220   1.00
Zn1      0.88220    0.88220    0.44780   1.00
Zn1      0.94780    0.94780    0.44780   1.00
O2       0.93850    0.89150    0.32680   1.00
O2       0.93850    0.82680    0.39150   1.00
O2       1.00320    0.89150    0.39150   1.00
O2       0.89150    0.93850    0.32680   1.00
O2       0.82680    0.93850    0.39150   1.00
O2       0.89150    1.00320    0.39150   1.00
O2       0.89150    0.82680    0.43850   1.00
O2       0.82680    0.89150    0.43850   1.00
O2       0.89150    0.89150    0.50320   1.00
O2       1.00320    0.93850    0.43850   1.00
O2       0.93850    1.00320    0.43850   1.00
O2       0.93850    0.93850    0.50320   1.00
C1       0.91500    0.91500    0.30980   1.00
C1       0.91500    0.80980    0.41500   1.00
C1       1.02020    0.91500    0.41500   1.00
C1       0.80980    0.91500    0.41500   1.00
C1       0.91500    1.02020    0.41500   1.00
C1       0.91500    0.91500    0.52020   1.00
O1       0.91500    0.41500    0.91500   1.00
Zn1      0.94780    0.38220    0.88220   1.00
Zn1      0.88220    0.44780    0.88220   1.00
Zn1      0.88220    0.38220    0.94780   1.00
Zn1      0.94780    0.44780    0.94780   1.00
O2       0.93850    0.39150    0.82680   1.00
O2       0.93850    0.32680    0.89150   1.00
O2       1.00320    0.39150    0.89150   1.00
O2       0.89150    0.43850    0.82680   1.00
O2       0.82680    0.43850    0.89150   1.00
O2       0.89150    0.50320    0.89150   1.00
O2       0.89150    0.32680    0.93850   1.00
O2       0.82680    0.39150    0.93850   1.00
O2       0.89150    0.39150    1.00320   1.00
O2       1.00320    0.43850    0.93850   1.00
O2       0.93850    0.50320    0.93850   1.00
O2       0.93850    0.43850    1.00320   1.00
C1       0.91500    0.41500    0.80980   1.00
C1       0.91500    0.30980    0.91500   1.00
C1       1.02020    0.41500    0.91500   1.00
C1       0.80980    0.41500    0.91500   1.00
C1       0.91500    0.52020    0.91500   1.00
C1       0.91500    0.41500    1.02020   1.00
O1       0.41500    0.91500    0.91500   1.00
Zn1      0.44780    0.88220    0.88220   1.00
Zn1      0.38220    0.94780    0.88220   1.00
Zn1      0.38220    0.88220    0.94780   1.00
Zn1      0.44780    0.94780    0.94780   1.00
O2       0.43850    0.89150    0.82680   1.00
O2       0.43850    0.82680    0.89150   1.00
O2       0.50320    0.89150    0.89150   1.00
O2       0.39150    0.93850    0.82680   1.00
O2       0.32680    0.93850    0.89150   1.00
O2       0.39150    1.00320    0.89150   1.00
O2       0.39150    0.82680    0.93850   1.00
O2       0.32680    0.89150    0.93850   1.00
O2       0.39150    0.89150    1.00320   1.00
O2       0.50320    0.93850    0.93850   1.00
O2       0.43850    1.00320    0.93850   1.00
O2       0.43850    0.93850    1.00320   1.00
C1       0.41500    0.91500    0.80980   1.00
C1       0.41500    0.80980    0.91500   1.00
C1       0.52020    0.91500    0.91500   1.00
C1       0.30980    0.91500    0.91500   1.00
C1       0.41500    1.02020    0.91500   1.00
C1       0.41500    0.91500    1.02020   1.00
C4       0.75076    0.74987    0.97917   1.00
C4       0.74924    0.75013    1.02083   1.00
C3       0.77765    0.72630    0.95846   1.00
C3       0.75369    0.71573    1.04321   1.00
C3       0.72473    0.77254    0.95643   1.00
C3       0.74412    0.78531    1.04187   1.00
C2       0.75238    0.74808    0.89487   1.00
C2       0.74781    0.75166    1.10514   1.00
C3       0.77842    0.72552    0.91715   1.00
C3       0.75291    0.71655    1.08449   1.00
C3       0.72559    0.77162    0.91514   1.00
C3a      0.74333    0.78626    1.08328   1.00
H1       0.79852    0.70860    0.97425   1.00
H1       0.75732    0.68788    1.02875   1.00
H1       0.79947    0.70717    0.90240   1.00
H1       0.75624    0.68955    1.10056   1.00
H1       0.70506    0.78922    0.89882   1.00
C5       0.73802    0.82474    1.10380   1.00
H1       0.74092    0.81253    1.02622   1.00
H1       0.70297    0.79056    0.97059   1.00
H2       0.73729    0.82077    1.13599   1.00
H2       0.76348    0.84366    1.09705   1.00
N1       0.70181    0.84355    1.09125   1.00
C6       0.66547    0.82953    1.09644   1.00
C6       0.69863    0.87814    1.07288   1.00
C6       0.63872    0.85534    1.08102   1.00
C6       0.65982    0.88626    1.06604   1.00
H3       0.65870    0.80204    1.11049   1.00
H3       0.72302    0.89654    1.06484   1.00
H3       0.60735    0.85201    1.08076   1.00
H3       0.64817    0.91188    1.05180   1.00
C4       0.74987    0.97917    0.75076   1.00
C4       0.75013    1.02083    0.74924   1.00
C3       0.72630    0.95846    0.77765   1.00
C3       0.71573    1.04321    0.75369   1.00
C3       0.77254    0.95643    0.72473   1.00
C3       0.78531    1.04187    0.74412   1.00
C2       0.74808    0.89487    0.75238   1.00
C2       0.75166    1.10514    0.74781   1.00
C3       0.72552    0.91715    0.77842   1.00
C3       0.71655    1.08449    0.75291   1.00
C3       0.77162    0.91514    0.72559   1.00
C3a      0.78626    1.08328    0.74333   1.00
H1       0.70860    0.97425    0.79852   1.00
H1       0.68788    1.02875    0.75732   1.00
H1       0.70717    0.90240    0.79947   1.00
H1       0.68955    1.10056    0.75624   1.00
H1       0.78922    0.89882    0.70506   1.00
C5       0.82474    1.10380    0.73802   1.00
H1       0.81253    1.02622    0.74092   1.00
H1       0.79056    0.97059    0.70297   1.00
H2       0.82077    1.13599    0.73729   1.00
H2       0.84366    1.09705    0.76348   1.00
N1       0.84355    1.09125    0.70181   1.00
C6       0.82953    1.09644    0.66547   1.00
C6       0.87814    1.07288    0.69863   1.00
C6       0.85534    1.08102    0.63872   1.00
C6       0.88626    1.06604    0.65982   1.00
H3       0.80204    1.11049    0.65870   1.00
H3       0.89654    1.06484    0.72302   1.00
H3       0.85201    1.08076    0.60735   1.00
H3       0.91188    1.05180    0.64817   1.00
C4       0.52083    0.75076    0.75013   1.00
C4       0.47917    0.74924    0.74987   1.00
C3       0.54154    0.77765    0.77370   1.00
C3       0.45679    0.75369    0.78427   1.00
C3       0.54357    0.72473    0.72746   1.00
C3       0.45813    0.74412    0.71469   1.00
C2       0.60513    0.75238    0.75192   1.00
C2       0.39486    0.74781    0.74834   1.00
C3       0.58285    0.77842    0.77448   1.00
C3       0.41551    0.75291    0.78345   1.00
C3       0.58486    0.72559    0.72838   1.00
C3a      0.41672    0.74333    0.71374   1.00
H1       0.52575    0.79852    0.79140   1.00
H1       0.47125    0.75732    0.81212   1.00
H1       0.59760    0.79947    0.79283   1.00
H1       0.39944    0.75624    0.81045   1.00
H1       0.60118    0.70506    0.71078   1.00
C5       0.39620    0.73802    0.67526   1.00
H1       0.47378    0.74092    0.68747   1.00
H1       0.52941    0.70297    0.70944   1.00
H2       0.36401    0.73729    0.67923   1.00
H2       0.40295    0.76348    0.65634   1.00
N1       0.40875    0.70181    0.65645   1.00
C6       0.40356    0.66547    0.67047   1.00
C6       0.42712    0.69863    0.62186   1.00
C6       0.41898    0.63872    0.64466   1.00
C6       0.43396    0.65982    0.61374   1.00
H3       0.38951    0.65870    0.69796   1.00
H3       0.43516    0.72302    0.60346   1.00
H3       0.41924    0.60735    0.64799   1.00
H3       0.44820    0.64817    0.58812   1.00
C4       0.97917    0.75076    0.74987   1.00
C4       1.02083    0.74924    0.75013   1.00
C3       0.95846    0.77765    0.72630   1.00
C3       1.04321    0.75369    0.71573   1.00
C3       0.95643    0.72473    0.77254   1.00
C3       1.04187    0.74412    0.78531   1.00
C2       0.89487    0.75238    0.74808   1.00
C2       1.10514    0.74781    0.75166   1.00
C3       0.91715    0.77842    0.72552   1.00
C3       1.08449    0.75291    0.71655   1.00
C3       0.91514    0.72559    0.77162   1.00
C3a      1.08328    0.74333    0.78626   1.00
H1       0.97425    0.79852    0.70860   1.00
H1       1.02875    0.75732    0.68788   1.00
H1       0.90240    0.79947    0.70717   1.00
H1       1.10056    0.75624    0.68955   1.00
H1       0.89882    0.70506    0.78922   1.00
C5       1.10380    0.73802    0.82474   1.00
H1       1.02622    0.74092    0.81253   1.00
H1       0.97059    0.70297    0.79056   1.00
H2       1.13599    0.73729    0.82077   1.00
H2       1.09705    0.76348    0.84366   1.00
N1       1.09125    0.70181    0.84355   1.00
C6       1.09644    0.66547    0.82953   1.00
C6       1.07288    0.69863    0.87814   1.00
C6       1.08102    0.63872    0.85534   1.00
C6       1.06604    0.65982    0.88626   1.00
H3       1.11049    0.65870    0.80204   1.00
H3       1.06484    0.72302    0.89654   1.00
H3       1.08076    0.60735    0.85201   1.00
H3       1.05180    0.64817    0.91188   1.00
C4       0.75013    0.52083    0.75076   1.00
C4       0.74987    0.47917    0.74924   1.00
C3       0.77370    0.54154    0.77765   1.00
C3       0.78427    0.45679    0.75369   1.00
C3       0.72746    0.54357    0.72473   1.00
C3       0.71469    0.45813    0.74412   1.00
C2       0.75192    0.60513    0.75238   1.00
C2       0.74834    0.39486    0.74781   1.00
C3       0.77448    0.58285    0.77842   1.00
C3       0.78345    0.41551    0.75291   1.00
C3       0.72838    0.58486    0.72559   1.00
C3a      0.71374    0.41672    0.74333   1.00
H1       0.79140    0.52575    0.79852   1.00
H1       0.81212    0.47125    0.75732   1.00
H1       0.79283    0.59760    0.79947   1.00
H1       0.81045    0.39944    0.75624   1.00
H1       0.71078    0.60118    0.70506   1.00
C5       0.67526    0.39620    0.73802   1.00
H1       0.68747    0.47378    0.74092   1.00
H1       0.70944    0.52941    0.70297   1.00
H2       0.67923    0.36401    0.73729   1.00
H2       0.65634    0.40295    0.76348   1.00
N1       0.65645    0.40875    0.70181   1.00
C6       0.67047    0.40356    0.66547   1.00
C6       0.62186    0.42712    0.69863   1.00
C6       0.64466    0.41898    0.63872   1.00
C6       0.61374    0.43396    0.65982   1.00
H3       0.69796    0.38951    0.65870   1.00
H3       0.60346    0.43516    0.72302   1.00
H3       0.64799    0.41924    0.60735   1.00
H3       0.58812    0.44820    0.64817   1.00
C4       0.75076    0.75013    0.52083   1.00
C4       0.74924    0.74987    0.47917   1.00
C3       0.77765    0.77370    0.54154   1.00
C3       0.75369    0.78427    0.45679   1.00
C3       0.72473    0.72746    0.54357   1.00
C3       0.74412    0.71469    0.45813   1.00
C2       0.75238    0.75192    0.60513   1.00
C2       0.74781    0.74834    0.39486   1.00
C3       0.77842    0.77448    0.58285   1.00
C3       0.75291    0.78345    0.41551   1.00
C3       0.72559    0.72838    0.58486   1.00
C3a      0.74333    0.71374    0.41672   1.00
H1       0.79852    0.79140    0.52575   1.00
H1       0.75732    0.81212    0.47125   1.00
H1       0.79947    0.79283    0.59760   1.00
H1       0.75624    0.81045    0.39944   1.00
H1       0.70506    0.71078    0.60118   1.00
C5       0.73802    0.67526    0.39620   1.00
H1       0.74092    0.68747    0.47378   1.00
H1       0.70297    0.70944    0.52941   1.00
H2       0.73729    0.67923    0.36401   1.00
H2       0.76348    0.65634    0.40295   1.00
N1       0.70181    0.65645    0.40875   1.00
C6       0.66547    0.67047    0.40356   1.00
C6       0.69863    0.62186    0.42712   1.00
C6       0.63872    0.64466    0.41898   1.00
C6       0.65982    0.61374    0.43396   1.00
H3       0.65870    0.69796    0.38951   1.00
H3       0.72302    0.60346    0.43516   1.00
H3       0.60735    0.64799    0.41924   1.00
H3       0.64817    0.58812    0.44820   1.00
C4       0.25076    0.24987    0.97917   1.00
C4       0.24924    0.25013    1.02083   1.00
C3       0.27765    0.22630    0.95846   1.00
C3       0.25369    0.21573    1.04321   1.00
C3       0.22473    0.27254    0.95643   1.00
C3       0.24412    0.28531    1.04187   1.00
C2       0.25238    0.24808    0.89487   1.00
C2       0.24781    0.25166    1.10514   1.00
C3       0.27842    0.22552    0.91715   1.00
C3       0.25291    0.21655    1.08449   1.00
C3       0.22559    0.27162    0.91514   1.00
C3a      0.24333    0.28626    1.08328   1.00
H1       0.29852    0.20860    0.97425   1.00
H1       0.25732    0.18788    1.02875   1.00
H1       0.29947    0.20717    0.90240   1.00
H1       0.25624    0.18955    1.10056   1.00
H1       0.20506    0.28922    0.89882   1.00
C5       0.23802    0.32474    1.10380   1.00
H1       0.24092    0.31253    1.02622   1.00
H1       0.20297    0.29056    0.97059   1.00
H2       0.23729    0.32077    1.13599   1.00
H2       0.26348    0.34366    1.09705   1.00
N1       0.20181    0.34355    1.09125   1.00
C6       0.16547    0.32953    1.09644   1.00
C6       0.19863    0.37814    1.07288   1.00
C6       0.13872    0.35534    1.08102   1.00
C6       0.15982    0.38626    1.06604   1.00
H3       0.15870    0.30204    1.11049   1.00
H3       0.22302    0.39654    1.06484   1.00
H3       0.10735    0.35201    1.08076   1.00
H3       0.14817    0.41188    1.05180   1.00
C4       0.24987    0.47917    0.75076   1.00
C4       0.25013    0.52083    0.74924   1.00
C3       0.22630    0.45846    0.77765   1.00
C3       0.21573    0.54321    0.75369   1.00
C3       0.27254    0.45643    0.72473   1.00
C3       0.28531    0.54187    0.74412   1.00
C2       0.24808    0.39487    0.75238   1.00
C2       0.25166    0.60514    0.74781   1.00
C3       0.22552    0.41715    0.77842   1.00
C3       0.21655    0.58449    0.75291   1.00
C3       0.27162    0.41514    0.72559   1.00
C3a      0.28626    0.58328    0.74333   1.00
H1       0.20860    0.47425    0.79852   1.00
H1       0.18788    0.52875    0.75732   1.00
H1       0.20717    0.40240    0.79947   1.00
H1       0.18955    0.60056    0.75624   1.00
H1       0.28922    0.39882    0.70506   1.00
C5       0.32474    0.60380    0.73802   1.00
H1       0.31253    0.52622    0.74092   1.00
H1       0.29056    0.47059    0.70297   1.00
H2       0.32077    0.63599    0.73729   1.00
H2       0.34366    0.59705    0.76348   1.00
N1       0.34355    0.59125    0.70181   1.00
C6       0.32953    0.59644    0.66547   1.00
C6       0.37814    0.57288    0.69863   1.00
C6       0.35534    0.58102    0.63872   1.00
C6       0.38626    0.56604    0.65982   1.00
H3       0.30204    0.61049    0.65870   1.00
H3       0.39654    0.56484    0.72302   1.00
H3       0.35201    0.58076    0.60735   1.00
H3       0.41188    0.55180    0.64817   1.00
C4       0.02083    0.25076    0.75013   1.00
C4       -0.02083   0.24924    0.74987   1.00
C3       0.04154    0.27765    0.77370   1.00
C3       -0.04321   0.25369    0.78427   1.00
C3       0.04357    0.22473    0.72746   1.00
C3       -0.04187   0.24412    0.71469   1.00
C2       0.10513    0.25238    0.75192   1.00
C2       -0.10514   0.24781    0.74834   1.00
C3       0.08285    0.27842    0.77448   1.00
C3       -0.08449   0.25291    0.78345   1.00
C3       0.08486    0.22559    0.72838   1.00
C3a      -0.08328   0.24333    0.71374   1.00
H1       0.02575    0.29852    0.79140   1.00
H1       -0.02875   0.25732    0.81212   1.00
H1       0.09760    0.29947    0.79283   1.00
H1       -0.10056   0.25624    0.81045   1.00
H1       0.10118    0.20506    0.71078   1.00
C5       -0.10380   0.23802    0.67526   1.00
H1       -0.02622   0.24092    0.68747   1.00
H1       0.02941    0.20297    0.70944   1.00
H2       -0.13599   0.23729    0.67923   1.00
H2       -0.09705   0.26348    0.65634   1.00
N1       -0.09125   0.20181    0.65645   1.00
C6       -0.09644   0.16547    0.67047   1.00
C6       -0.07288   0.19863    0.62186   1.00
C6       -0.08102   0.13872    0.64466   1.00
C6       -0.06604   0.15982    0.61374   1.00
H3       -0.11049   0.15870    0.69796   1.00
H3       -0.06484   0.22302    0.60346   1.00
H3       -0.08076   0.10735    0.64799   1.00
H3       -0.05180   0.14817    0.58812   1.00
C4       0.47917    0.25076    0.74987   1.00
C4       0.52083    0.24924    0.75013   1.00
C3       0.45846    0.27765    0.72630   1.00
C3       0.54321    0.25369    0.71573   1.00
C3       0.45643    0.22473    0.77254   1.00
C3       0.54187    0.24412    0.78531   1.00
C2       0.39487    0.25238    0.74808   1.00
C2       0.60514    0.24781    0.75166   1.00
C3       0.41715    0.27842    0.72552   1.00
C3       0.58449    0.25291    0.71655   1.00
C3       0.41514    0.22559    0.77162   1.00
C3a      0.58328    0.24333    0.78626   1.00
H1       0.47425    0.29852    0.70860   1.00
H1       0.52875    0.25732    0.68788   1.00
H1       0.40240    0.29947    0.70717   1.00
H1       0.60056    0.25624    0.68955   1.00
H1       0.39882    0.20506    0.78922   1.00
C5       0.60380    0.23802    0.82474   1.00
H1       0.52622    0.24092    0.81253   1.00
H1       0.47059    0.20297    0.79056   1.00
H2       0.63599    0.23729    0.82077   1.00
H2       0.59705    0.26348    0.84366   1.00
N1       0.59125    0.20181    0.84355   1.00
C6       0.59644    0.16547    0.82953   1.00
C6       0.57288    0.19863    0.87814   1.00
C6       0.58102    0.13872    0.85534   1.00
C6       0.56604    0.15982    0.88626   1.00
H3       0.61049    0.15870    0.80204   1.00
H3       0.56484    0.22302    0.89654   1.00
H3       0.58076    0.10735    0.85201   1.00
H3       0.55180    0.14817    0.91188   1.00
C4       0.25013    0.02083    0.75076   1.00
C4       0.24987    -0.02083   0.74924   1.00
C3       0.27370    0.04154    0.77765   1.00
C3       0.28427    -0.04321   0.75369   1.00
C3       0.22746    0.04357    0.72473   1.00
C3       0.21469    -0.04187   0.74412   1.00
C2       0.25192    0.10513    0.75238   1.00
C2       0.24834    -0.10514   0.74781   1.00
C3       0.27448    0.08285    0.77842   1.00
C3       0.28345    -0.08449   0.75291   1.00
C3       0.22838    0.08486    0.72559   1.00
C3a      0.21374    -0.08328   0.74333   1.00
H1       0.29140    0.02575    0.79852   1.00
H1       0.31212    -0.02875   0.75732   1.00
H1       0.29283    0.09760    0.79947   1.00
H1       0.31045    -0.10056   0.75624   1.00
H1       0.21078    0.10118    0.70506   1.00
C5       0.17526    -0.10380   0.73802   1.00
H1       0.18747    -0.02622   0.74092   1.00
H1       0.20944    0.02941    0.70297   1.00
H2       0.17923    -0.13599   0.73729   1.00
H2       0.15634    -0.09705   0.76348   1.00
N1       0.15645    -0.09125   0.70181   1.00
C6       0.17047    -0.09644   0.66547   1.00
C6       0.12186    -0.07288   0.69863   1.00
C6       0.14466    -0.08102   0.63872   1.00
C6       0.11374    -0.06604   0.65982   1.00
H3       0.19796    -0.11049   0.65870   1.00
H3       0.10346    -0.06484   0.72302   1.00
H3       0.14799    -0.08076   0.60735   1.00
H3       0.08812    -0.05180   0.64817   1.00
C4       0.25076    0.25013    0.52083   1.00
C4       0.24924    0.24987    0.47917   1.00
C3       0.27765    0.27370    0.54154   1.00
C3       0.25369    0.28427    0.45679   1.00
C3       0.22473    0.22746    0.54357   1.00
C3       0.24412    0.21469    0.45813   1.00
C2       0.25238    0.25192    0.60513   1.00
C2       0.24781    0.24834    0.39486   1.00
C3       0.27842    0.27448    0.58285   1.00
C3       0.25291    0.28345    0.41551   1.00
C3       0.22559    0.22838    0.58486   1.00
C3a      0.24333    0.21374    0.41672   1.00
H1       0.29852    0.29140    0.52575   1.00
H1       0.25732    0.31212    0.47125   1.00
H1       0.29947    0.29283    0.59760   1.00
H1       0.25624    0.31045    0.39944   1.00
H1       0.20506    0.21078    0.60118   1.00
C5       0.23802    0.17526    0.39620   1.00
H1       0.24092    0.18747    0.47378   1.00
H1       0.20297    0.20944    0.52941   1.00
H2       0.23729    0.17923    0.36401   1.00
H2       0.26348    0.15634    0.40295   1.00
N1       0.20181    0.15645    0.40875   1.00
C6       0.16547    0.17047    0.40356   1.00
C6       0.19863    0.12186    0.42712   1.00
C6       0.13872    0.14466    0.41898   1.00
C6       0.15982    0.11374    0.43396   1.00
H3       0.15870    0.19796    0.38951   1.00
H3       0.22302    0.10346    0.43516   1.00
H3       0.10735    0.14799    0.41924   1.00
H3       0.14817    0.08812    0.44820   1.00
C4       0.25076    0.74987    0.47917   1.00
C4       0.24924    0.75013    0.52083   1.00
C3       0.27765    0.72630    0.45846   1.00
C3       0.25369    0.71573    0.54321   1.00
C3       0.22473    0.77254    0.45643   1.00
C3       0.24412    0.78531    0.54187   1.00
C2       0.25238    0.74808    0.39487   1.00
C2       0.24781    0.75166    0.60514   1.00
C3       0.27842    0.72552    0.41715   1.00
C3       0.25291    0.71655    0.58449   1.00
C3       0.22559    0.77162    0.41514   1.00
C3a      0.24333    0.78626    0.58328   1.00
H1       0.29852    0.70860    0.47425   1.00
H1       0.25732    0.68788    0.52875   1.00
H1       0.29947    0.70717    0.40240   1.00
H1       0.25624    0.68955    0.60056   1.00
H1       0.20506    0.78922    0.39882   1.00
C5       0.23802    0.82474    0.60380   1.00
H1       0.24092    0.81253    0.52622   1.00
H1       0.20297    0.79056    0.47059   1.00
H2       0.23729    0.82077    0.63599   1.00
H2       0.26348    0.84366    0.59705   1.00
N1       0.20181    0.84355    0.59125   1.00
C6       0.16547    0.82953    0.59644   1.00
C6       0.19863    0.87814    0.57288   1.00
C6       0.13872    0.85534    0.58102   1.00
C6       0.15982    0.88626    0.56604   1.00
H3       0.15870    0.80204    0.61049   1.00
H3       0.22302    0.89654    0.56484   1.00
H3       0.10735    0.85201    0.58076   1.00
H3       0.14817    0.91188    0.55180   1.00
C4       0.24987    0.97917    0.25076   1.00
C4       0.25013    1.02083    0.24924   1.00
C3       0.22630    0.95846    0.27765   1.00
C3       0.21573    1.04321    0.25369   1.00
C3       0.27254    0.95643    0.22473   1.00
C3       0.28531    1.04187    0.24412   1.00
C2       0.24808    0.89487    0.25238   1.00
C2       0.25166    1.10514    0.24781   1.00
C3       0.22552    0.91715    0.27842   1.00
C3       0.21655    1.08449    0.25291   1.00
C3       0.27162    0.91514    0.22559   1.00
C3a      0.28626    1.08328    0.24333   1.00
H1       0.20860    0.97425    0.29852   1.00
H1       0.18788    1.02875    0.25732   1.00
H1       0.20717    0.90240    0.29947   1.00
H1       0.18955    1.10056    0.25624   1.00
H1       0.28922    0.89882    0.20506   1.00
C5       0.32474    1.10380    0.23802   1.00
H1       0.31253    1.02622    0.24092   1.00
H1       0.29056    0.97059    0.20297   1.00
H2       0.32077    1.13599    0.23729   1.00
H2       0.34366    1.09705    0.26348   1.00
N1       0.34355    1.09125    0.20181   1.00
C6       0.32953    1.09644    0.16547   1.00
C6       0.37814    1.07288    0.19863   1.00
C6       0.35534    1.08102    0.13872   1.00
C6       0.38626    1.06604    0.15982   1.00
H3       0.30204    1.11049    0.15870   1.00
H3       0.39654    1.06484    0.22302   1.00
H3       0.35201    1.08076    0.10735   1.00
H3       0.41188    1.05180    0.14817   1.00
C4       0.02083    0.75076    0.25013   1.00
C4       -0.02083   0.74924    0.24987   1.00
C3       0.04154    0.77765    0.27370   1.00
C3       -0.04321   0.75369    0.28427   1.00
C3       0.04357    0.72473    0.22746   1.00
C3       -0.04187   0.74412    0.21469   1.00
C2       0.10513    0.75238    0.25192   1.00
C2       -0.10514   0.74781    0.24834   1.00
C3       0.08285    0.77842    0.27448   1.00
C3       -0.08449   0.75291    0.28345   1.00
C3       0.08486    0.72559    0.22838   1.00
C3a      -0.08328   0.74333    0.21374   1.00
H1       0.02575    0.79852    0.29140   1.00
H1       -0.02875   0.75732    0.31212   1.00
H1       0.09760    0.79947    0.29283   1.00
H1       -0.10056   0.75624    0.31045   1.00
H1       0.10118    0.70506    0.21078   1.00
C5       -0.10380   0.73802    0.17526   1.00
H1       -0.02622   0.74092    0.18747   1.00
H1       0.02941    0.70297    0.20944   1.00
H2       -0.13599   0.73729    0.17923   1.00
H2       -0.09705   0.76348    0.15634   1.00
N1       -0.09125   0.70181    0.15645   1.00
C6       -0.09644   0.66547    0.17047   1.00
C6       -0.07288   0.69863    0.12186   1.00
C6       -0.08102   0.63872    0.14466   1.00
C6       -0.06604   0.65982    0.11374   1.00
H3       -0.11049   0.65870    0.19796   1.00
H3       -0.06484   0.72302    0.10346   1.00
H3       -0.08076   0.60735    0.14799   1.00
H3       -0.05180   0.64817    0.08812   1.00
C4       0.47917    0.75076    0.24987   1.00
C4       0.52083    0.74924    0.25013   1.00
C3       0.45846    0.77765    0.22630   1.00
C3       0.54321    0.75369    0.21573   1.00
C3       0.45643    0.72473    0.27254   1.00
C3       0.54187    0.74412    0.28531   1.00
C2       0.39487    0.75238    0.24808   1.00
C2       0.60514    0.74781    0.25166   1.00
C3       0.41715    0.77842    0.22552   1.00
C3       0.58449    0.75291    0.21655   1.00
C3       0.41514    0.72559    0.27162   1.00
C3a      0.58328    0.74333    0.28626   1.00
H1       0.47425    0.79852    0.20860   1.00
H1       0.52875    0.75732    0.18788   1.00
H1       0.40240    0.79947    0.20717   1.00
H1       0.60056    0.75624    0.18955   1.00
H1       0.39882    0.70506    0.28922   1.00
C5       0.60380    0.73802    0.32474   1.00
H1       0.52622    0.74092    0.31253   1.00
H1       0.47059    0.70297    0.29056   1.00
H2       0.63599    0.73729    0.32077   1.00
H2       0.59705    0.76348    0.34366   1.00
N1       0.59125    0.70181    0.34355   1.00
C6       0.59644    0.66547    0.32953   1.00
C6       0.57288    0.69863    0.37814   1.00
C6       0.58102    0.63872    0.35534   1.00
C6       0.56604    0.65982    0.38626   1.00
H3       0.61049    0.65870    0.30204   1.00
H3       0.56484    0.72302    0.39654   1.00
H3       0.58076    0.60735    0.35201   1.00
H3       0.55180    0.64817    0.41188   1.00
C4       0.25013    0.52083    0.25076   1.00
C4       0.24987    0.47917    0.24924   1.00
C3       0.27370    0.54154    0.27765   1.00
C3       0.28427    0.45679    0.25369   1.00
C3       0.22746    0.54357    0.22473   1.00
C3       0.21469    0.45813    0.24412   1.00
C2       0.25192    0.60513    0.25238   1.00
C2       0.24834    0.39486    0.24781   1.00
C3       0.27448    0.58285    0.27842   1.00
C3       0.28345    0.41551    0.25291   1.00
C3       0.22838    0.58486    0.22559   1.00
C3a      0.21374    0.41672    0.24333   1.00
H1       0.29140    0.52575    0.29852   1.00
H1       0.31212    0.47125    0.25732   1.00
H1       0.29283    0.59760    0.29947   1.00
H1       0.31045    0.39944    0.25624   1.00
H1       0.21078    0.60118    0.20506   1.00
C5       0.17526    0.39620    0.23802   1.00
H1       0.18747    0.47378    0.24092   1.00
H1       0.20944    0.52941    0.20297   1.00
H2       0.17923    0.36401    0.23729   1.00
H2       0.15634    0.40295    0.26348   1.00
N1       0.15645    0.40875    0.20181   1.00
C6       0.17047    0.40356    0.16547   1.00
C6       0.12186    0.42712    0.19863   1.00
C6       0.14466    0.41898    0.13872   1.00
C6       0.11374    0.43396    0.15982   1.00
H3       0.19796    0.38951    0.15870   1.00
H3       0.10346    0.43516    0.22302   1.00
H3       0.14799    0.41924    0.10735   1.00
H3       0.08812    0.44820    0.14817   1.00
C4       0.25076    0.75013    0.02083   1.00
C4       0.24924    0.74987    -0.02083   1.00
C3       0.27765    0.77370    0.04154   1.00
C3       0.25369    0.78427    -0.04321   1.00
C3       0.22473    0.72746    0.04357   1.00
C3       0.24412    0.71469    -0.04187   1.00
C2       0.25238    0.75192    0.10513   1.00
C2       0.24781    0.74834    -0.10514   1.00
C3       0.27842    0.77448    0.08285   1.00
C3       0.25291    0.78345    -0.08449   1.00
C3       0.22559    0.72838    0.08486   1.00
C3a      0.24333    0.71374    -0.08328   1.00
H1       0.29852    0.79140    0.02575   1.00
H1       0.25732    0.81212    -0.02875   1.00
H1       0.29947    0.79283    0.09760   1.00
H1       0.25624    0.81045    -0.10056   1.00
H1       0.20506    0.71078    0.10118   1.00
C5       0.23802    0.67526    -0.10380   1.00
H1       0.24092    0.68747    -0.02622   1.00
H1       0.20297    0.70944    0.02941   1.00
H2       0.23729    0.67923    -0.13599   1.00
H2       0.26348    0.65634    -0.09705   1.00
N1       0.20181    0.65645    -0.09125   1.00
C6       0.16547    0.67047    -0.09644   1.00
C6       0.19863    0.62186    -0.07288   1.00
C6       0.13872    0.64466    -0.08102   1.00
C6       0.15982    0.61374    -0.06604   1.00
H3       0.15870    0.69796    -0.11049   1.00
H3       0.22302    0.60346    -0.06484   1.00
H3       0.10735    0.64799    -0.08076   1.00
H3       0.14817    0.58812    -0.05180   1.00
C4       0.75076    0.24987    0.47917   1.00
C4       0.74924    0.25013    0.52083   1.00
C3       0.77765    0.22630    0.45846   1.00
C3       0.75369    0.21573    0.54321   1.00
C3       0.72473    0.27254    0.45643   1.00
C3       0.74412    0.28531    0.54187   1.00
C2       0.75238    0.24808    0.39487   1.00
C2       0.74781    0.25166    0.60514   1.00
C3       0.77842    0.22552    0.41715   1.00
C3       0.75291    0.21655    0.58449   1.00
C3       0.72559    0.27162    0.41514   1.00
C3a      0.74333    0.28626    0.58328   1.00
H1       0.79852    0.20860    0.47425   1.00
H1       0.75732    0.18788    0.52875   1.00
H1       0.79947    0.20717    0.40240   1.00
H1       0.75624    0.18955    0.60056   1.00
H1       0.70506    0.28922    0.39882   1.00
C5       0.73802    0.32474    0.60380   1.00
H1       0.74092    0.31253    0.52622   1.00
H1       0.70297    0.29056    0.47059   1.00
H2       0.73729    0.32077    0.63599   1.00
H2       0.76348    0.34366    0.59705   1.00
N1       0.70181    0.34355    0.59125   1.00
C6       0.66547    0.32953    0.59644   1.00
C6       0.69863    0.37814    0.57288   1.00
C6       0.63872    0.35534    0.58102   1.00
C6       0.65982    0.38626    0.56604   1.00
H3       0.65870    0.30204    0.61049   1.00
H3       0.72302    0.39654    0.56484   1.00
H3       0.60735    0.35201    0.58076   1.00
H3       0.64817    0.41188    0.55180   1.00
C4       0.74987    0.47917    0.25076   1.00
C4       0.75013    0.52083    0.24924   1.00
C3       0.72630    0.45846    0.27765   1.00
C3       0.71573    0.54321    0.25369   1.00
C3       0.77254    0.45643    0.22473   1.00
C3       0.78531    0.54187    0.24412   1.00
C2       0.74808    0.39487    0.25238   1.00
C2       0.75166    0.60514    0.24781   1.00
C3       0.72552    0.41715    0.27842   1.00
C3       0.71655    0.58449    0.25291   1.00
C3       0.77162    0.41514    0.22559   1.00
C3a      0.78626    0.58328    0.24333   1.00
H1       0.70860    0.47425    0.29852   1.00
H1       0.68788    0.52875    0.25732   1.00
H1       0.70717    0.40240    0.29947   1.00
H1       0.68955    0.60056    0.25624   1.00
H1       0.78922    0.39882    0.20506   1.00
C5       0.82474    0.60380    0.23802   1.00
H1       0.81253    0.52622    0.24092   1.00
H1       0.79056    0.47059    0.20297   1.00
H2       0.82077    0.63599    0.23729   1.00
H2       0.84366    0.59705    0.26348   1.00
N1       0.84355    0.59125    0.20181   1.00
C6       0.82953    0.59644    0.16547   1.00
C6       0.87814    0.57288    0.19863   1.00
C6       0.85534    0.58102    0.13872   1.00
C6       0.88626    0.56604    0.15982   1.00
H3       0.80204    0.61049    0.15870   1.00
H3       0.89654    0.56484    0.22302   1.00
H3       0.85201    0.58076    0.10735   1.00
H3       0.91188    0.55180    0.14817   1.00
C4       0.52083    0.25076    0.25013   1.00
C4       0.47917    0.24924    0.24987   1.00
C3       0.54154    0.27765    0.27370   1.00
C3       0.45679    0.25369    0.28427   1.00
C3       0.54357    0.22473    0.22746   1.00
C3       0.45813    0.24412    0.21469   1.00
C2       0.60513    0.25238    0.25192   1.00
C2       0.39486    0.24781    0.24834   1.00
C3       0.58285    0.27842    0.27448   1.00
C3       0.41551    0.25291    0.28345   1.00
C3       0.58486    0.22559    0.22838   1.00
C3a      0.41672    0.24333    0.21374   1.00
H1       0.52575    0.29852    0.29140   1.00
H1       0.47125    0.25732    0.31212   1.00
H1       0.59760    0.29947    0.29283   1.00
H1       0.39944    0.25624    0.31045   1.00
H1       0.60118    0.20506    0.21078   1.00
C5       0.39620    0.23802    0.17526   1.00
H1       0.47378    0.24092    0.18747   1.00
H1       0.52941    0.20297    0.20944   1.00
H2       0.36401    0.23729    0.17923   1.00
H2       0.40295    0.26348    0.15634   1.00
N1       0.40875    0.20181    0.15645   1.00
C6       0.40356    0.16547    0.17047   1.00
C6       0.42712    0.19863    0.12186   1.00
C6       0.41898    0.13872    0.14466   1.00
C6       0.43396    0.15982    0.11374   1.00
H3       0.38951    0.15870    0.19796   1.00
H3       0.43516    0.22302    0.10346   1.00
H3       0.41924    0.10735    0.14799   1.00
H3       0.44820    0.14817    0.08812   1.00
C4       0.97917    0.25076    0.24987   1.00
C4       1.02083    0.24924    0.25013   1.00
C3       0.95846    0.27765    0.22630   1.00
C3       1.04321    0.25369    0.21573   1.00
C3       0.95643    0.22473    0.27254   1.00
C3       1.04187    0.24412    0.28531   1.00
C2       0.89487    0.25238    0.24808   1.00
C2       1.10514    0.24781    0.25166   1.00
C3       0.91715    0.27842    0.22552   1.00
C3       1.08449    0.25291    0.21655   1.00
C3       0.91514    0.22559    0.27162   1.00
C3a      1.08328    0.24333    0.28626   1.00
H1       0.97425    0.29852    0.20860   1.00
H1       1.02875    0.25732    0.18788   1.00
H1       0.90240    0.29947    0.20717   1.00
H1       1.10056    0.25624    0.18955   1.00
H1       0.89882    0.20506    0.28922   1.00
C5       1.10380    0.23802    0.32474   1.00
H1       1.02622    0.24092    0.31253   1.00
H1       0.97059    0.20297    0.29056   1.00
H2       1.13599    0.23729    0.32077   1.00
H2       1.09705    0.26348    0.34366   1.00
N1       1.09125    0.20181    0.34355   1.00
C6       1.09644    0.16547    0.32953   1.00
C6       1.07288    0.19863    0.37814   1.00
C6       1.08102    0.13872    0.35534   1.00
C6       1.06604    0.15982    0.38626   1.00
H3       1.11049    0.15870    0.30204   1.00
H3       1.06484    0.22302    0.39654   1.00
H3       1.08076    0.10735    0.35201   1.00
H3       1.05180    0.14817    0.41188   1.00
C4       0.75013    0.02083    0.25076   1.00
C4       0.74987    -0.02083   0.24924   1.00
C3       0.77370    0.04154    0.27765   1.00
C3       0.78427    -0.04321   0.25369   1.00
C3       0.72746    0.04357    0.22473   1.00
C3       0.71469    -0.04187   0.24412   1.00
C2       0.75192    0.10513    0.25238   1.00
C2       0.74834    -0.10514   0.24781   1.00
C3       0.77448    0.08285    0.27842   1.00
C3       0.78345    -0.08449   0.25291   1.00
C3       0.72838    0.08486    0.22559   1.00
C3a      0.71374    -0.08328   0.24333   1.00
H1       0.79140    0.02575    0.29852   1.00
H1       0.81212    -0.02875   0.25732   1.00
H1       0.79283    0.09760    0.29947   1.00
H1       0.81045    -0.10056   0.25624   1.00
H1       0.71078    0.10118    0.20506   1.00
C5       0.67526    -0.10380   0.23802   1.00
H1       0.68747    -0.02622   0.24092   1.00
H1       0.70944    0.02941    0.20297   1.00
H2       0.67923    -0.13599   0.23729   1.00
H2       0.65634    -0.09705   0.26348   1.00
N1       0.65645    -0.09125   0.20181   1.00
C6       0.67047    -0.09644   0.16547   1.00
C6       0.62186    -0.07288   0.19863   1.00
C6       0.64466    -0.08102   0.13872   1.00
C6       0.61374    -0.06604   0.15982   1.00
H3       0.69796    -0.11049   0.15870   1.00
H3       0.60346    -0.06484   0.22302   1.00
H3       0.64799    -0.08076   0.10735   1.00
H3       0.58812    -0.05180   0.14817   1.00
C4       0.75076    0.25013    0.02083   1.00
C4       0.74924    0.24987    -0.02083   1.00
C3       0.77765    0.27370    0.04154   1.00
C3       0.75369    0.28427    -0.04321   1.00
C3       0.72473    0.22746    0.04357   1.00
C3       0.74412    0.21469    -0.04187   1.00
C2       0.75238    0.25192    0.10513   1.00
C2       0.74781    0.24834    -0.10514   1.00
C3       0.77842    0.27448    0.08285   1.00
C3       0.75291    0.28345    -0.08449   1.00
C3       0.72559    0.22838    0.08486   1.00
C3a      0.74333    0.21374    -0.08328   1.00
H1       0.79852    0.29140    0.02575   1.00
H1       0.75732    0.31212    -0.02875   1.00
H1       0.79947    0.29283    0.09760   1.00
H1       0.75624    0.31045    -0.10056   1.00
H1       0.70506    0.21078    0.10118   1.00
C5       0.73802    0.17526    -0.10380   1.00
H1       0.74092    0.18747    -0.02622   1.00
H1       0.70297    0.20944    0.02941   1.00
H2       0.73729    0.17923    -0.13599   1.00
H2       0.76348    0.15634    -0.09705   1.00
N1       0.70181    0.15645    -0.09125   1.00
C6       0.66547    0.17047    -0.09644   1.00
C6       0.69863    0.12186    -0.07288   1.00
C6       0.63872    0.14466    -0.08102   1.00
C6       0.65982    0.11374    -0.06604   1.00
H3       0.65870    0.19796    -0.11049   1.00
H3       0.72302    0.10346    -0.06484   1.00
H3       0.60735    0.14799    -0.08076   1.00
H3       0.64817    0.08812    -0.05180   1.00
C4       0.91576    0.91487    1.14417   1.00
C4       0.91424    0.91513    1.18583   1.00
C3       0.94265    0.89130    1.12346   1.00
C3       0.91869    0.88073    1.20821   1.00
C3       0.88973    0.93754    1.12143   1.00
C3       0.90912    0.95031    1.20687   1.00
C2       0.91738    0.91308    1.05987   1.00
C2       0.91281    0.91666    1.27014   1.00
C3       0.94342    0.89052    1.08215   1.00
C3       0.91791    0.88155    1.24949   1.00
C3       0.89059    0.93662    1.08014   1.00
C3a      0.90833    0.95126    1.24828   1.00
H1       0.96352    0.87360    1.13925   1.00
H1       0.92232    0.85288    1.19375   1.00
H1       0.96447    0.87217    1.06740   1.00
H1       0.92124    0.85455    1.26556   1.00
H1       0.87006    0.95422    1.06382   1.00
C5       0.90302    0.98974    1.26880   1.00
H1       0.90592    0.97753    1.19122   1.00
H1       0.86797    0.95556    1.13559   1.00
H2       0.90229    0.98577    1.30099   1.00
H2       0.92848    1.00866    1.26205   1.00
N1       0.86681    1.00855    1.25625   1.00
C6       0.83047    0.99453    1.26144   1.00
C6       0.86363    1.04314    1.23788   1.00
C6       0.80372    1.02034    1.24602   1.00
C6       0.82482    1.05126    1.23104   1.00
H3       0.82370    0.96704    1.27549   1.00
H3       0.88802    1.06154    1.22984   1.00
H3       0.77235    1.01701    1.24576   1.00
H3       0.81317    1.07688    1.21680   1.00
C4       0.91487    1.14417    0.91576   1.00
C4       0.91513    1.18583    0.91424   1.00
C3       0.89130    1.12346    0.94265   1.00
C3       0.88073    1.20821    0.91869   1.00
C3       0.93754    1.12143    0.88973   1.00
C3       0.95031    1.20687    0.90912   1.00
C2       0.91308    1.05987    0.91738   1.00
C2       0.91666    1.27014    0.91281   1.00
C3       0.89052    1.08215    0.94342   1.00
C3       0.88155    1.24949    0.91791   1.00
C3       0.93662    1.08014    0.89059   1.00
C3a      0.95126    1.24828    0.90833   1.00
H1       0.87360    1.13925    0.96352   1.00
H1       0.85288    1.19375    0.92232   1.00
H1       0.87217    1.06740    0.96447   1.00
H1       0.85455    1.26556    0.92124   1.00
H1       0.95422    1.06382    0.87006   1.00
C5       0.98974    1.26880    0.90302   1.00
H1       0.97753    1.19122    0.90592   1.00
H1       0.95556    1.13559    0.86797   1.00
H2       0.98577    1.30099    0.90229   1.00
H2       1.00866    1.26205    0.92848   1.00
N1       1.00855    1.25625    0.86681   1.00
C6       0.99453    1.26144    0.83047   1.00
C6       1.04314    1.23788    0.86363   1.00
C6       1.02034    1.24602    0.80372   1.00
C6       1.05126    1.23104    0.82482   1.00
H3       0.96704    1.27549    0.82370   1.00
H3       1.06154    1.22984    0.88802   1.00
H3       1.01701    1.24576    0.77235   1.00
H3       1.07688    1.21680    0.81317   1.00
C4       0.68583    0.91576    0.91513   1.00
C4       0.64417    0.91424    0.91487   1.00
C3       0.70654    0.94265    0.93870   1.00
C3       0.62179    0.91869    0.94927   1.00
C3       0.70857    0.88973    0.89246   1.00
C3       0.62313    0.90912    0.87969   1.00
C2       0.77013    0.91738    0.91692   1.00
C2       0.55986    0.91281    0.91334   1.00
C3       0.74785    0.94342    0.93948   1.00
C3       0.58051    0.91791    0.94845   1.00
C3       0.74986    0.89059    0.89338   1.00
C3a      0.58172    0.90833    0.87874   1.00
H1       0.69075    0.96352    0.95640   1.00
H1       0.63625    0.92232    0.97712   1.00
H1       0.76260    0.96447    0.95783   1.00
H1       0.56444    0.92124    0.97545   1.00
H1       0.76618    0.87006    0.87578   1.00
C5       0.56120    0.90302    0.84026   1.00
H1       0.63878    0.90592    0.85247   1.00
H1       0.69441    0.86797    0.87444   1.00
H2       0.52901    0.90229    0.84423   1.00
H2       0.56795    0.92848    0.82134   1.00
N1       0.57375    0.86681    0.82145   1.00
C6       0.56856    0.83047    0.83547   1.00
C6       0.59212    0.86363    0.78686   1.00
C6       0.58398    0.80372    0.80966   1.00
C6       0.59896    0.82482    0.77874   1.00
H3       0.55451    0.82370    0.86296   1.00
H3       0.60016    0.88802    0.76846   1.00
H3       0.58424    0.77235    0.81299   1.00
H3       0.61320    0.81317    0.75312   1.00
C4       1.14417    0.91576    0.91487   1.00
C4       1.18583    0.91424    0.91513   1.00
C3       1.12346    0.94265    0.89130   1.00
C3       1.20821    0.91869    0.88073   1.00
C3       1.12143    0.88973    0.93754   1.00
C3       1.20687    0.90912    0.95031   1.00
C2       1.05987    0.91738    0.91308   1.00
C2       1.27014    0.91281    0.91666   1.00
C3       1.08215    0.94342    0.89052   1.00
C3       1.24949    0.91791    0.88155   1.00
C3       1.08014    0.89059    0.93662   1.00
C3a      1.24828    0.90833    0.95126   1.00
H1       1.13925    0.96352    0.87360   1.00
H1       1.19375    0.92232    0.85288   1.00
H1       1.06740    0.96447    0.87217   1.00
H1       1.26556    0.92124    0.85455   1.00
H1       1.06382    0.87006    0.95422   1.00
C5       1.26880    0.90302    0.98974   1.00
H1       1.19122    0.90592    0.97753   1.00
H1       1.13559    0.86797    0.95556   1.00
H2       1.30099    0.90229    0.98577   1.00
H2       1.26205    0.92848    1.00866   1.00
N1       1.25625    0.86681    1.00855   1.00
C6       1.26144    0.83047    0.99453   1.00
C6       1.23788    0.86363    1.04314   1.00
C6       1.24602    0.80372    1.02034   1.00
C6       1.23104    0.82482    1.05126   1.00
H3       1.27549    0.82370    0.96704   1.00
H3       1.22984    0.88802    1.06154   1.00
H3       1.24576    0.77235    1.01701   1.00
H3       1.21680    0.81317    1.07688   1.00
C4       0.91513    0.68583    0.91576   1.00
C4       0.91487    0.64417    0.91424   1.00
C3       0.93870    0.70654    0.94265   1.00
C3       0.94927    0.62179    0.91869   1.00
C3       0.89246    0.70857    0.88973   1.00
C3       0.87969    0.62313    0.90912   1.00
C2       0.91692    0.77013    0.91738   1.00
C2       0.91334    0.55986    0.91281   1.00
C3       0.93948    0.74785    0.94342   1.00
C3       0.94845    0.58051    0.91791   1.00
C3       0.89338    0.74986    0.89059   1.00
C3a      0.87874    0.58172    0.90833   1.00
H1       0.95640    0.69075    0.96352   1.00
H1       0.97712    0.63625    0.92232   1.00
H1       0.95783    0.76260    0.96447   1.00
H1       0.97545    0.56444    0.92124   1.00
H1       0.87578    0.76618    0.87006   1.00
C5       0.84026    0.56120    0.90302   1.00
H1       0.85247    0.63878    0.90592   1.00
H1       0.87444    0.69441    0.86797   1.00
H2       0.84423    0.52901    0.90229   1.00
H2       0.82134    0.56795    0.92848   1.00
N1       0.82145    0.57375    0.86681   1.00
C6       0.83547    0.56856    0.83047   1.00
C6       0.78686    0.59212    0.86363   1.00
C6       0.80966    0.58398    0.80372   1.00
C6       0.77874    0.59896    0.82482   1.00
H3       0.86296    0.55451    0.82370   1.00
H3       0.76846    0.60016    0.88802   1.00
H3       0.81299    0.58424    0.77235   1.00
H3       0.75312    0.61320    0.81317   1.00
C4       0.91576    0.91513    0.68583   1.00
C4       0.91424    0.91487    0.64417   1.00
C3       0.94265    0.93870    0.70654   1.00
C3       0.91869    0.94927    0.62179   1.00
C3       0.88973    0.89246    0.70857   1.00
C3       0.90912    0.87969    0.62313   1.00
C2       0.91738    0.91692    0.77013   1.00
C2       0.91281    0.91334    0.55986   1.00
C3       0.94342    0.93948    0.74785   1.00
C3       0.91791    0.94845    0.58051   1.00
C3       0.89059    0.89338    0.74986   1.00
C3a      0.90833    0.87874    0.58172   1.00
H1       0.96352    0.95640    0.69075   1.00
H1       0.92232    0.97712    0.63625   1.00
H1       0.96447    0.95783    0.76260   1.00
H1       0.92124    0.97545    0.56444   1.00
H1       0.87006    0.87578    0.76618   1.00
C5       0.90302    0.84026    0.56120   1.00
H1       0.90592    0.85247    0.63878   1.00
H1       0.86797    0.87444    0.69441   1.00
H2       0.90229    0.84423    0.52901   1.00
H2       0.92848    0.82134    0.56795   1.00
N1       0.86681    0.82145    0.57375   1.00
C6       0.83047    0.83547    0.56856   1.00
C6       0.86363    0.78686    0.59212   1.00
C6       0.80372    0.80966    0.58398   1.00
C6       0.82482    0.77874    0.59896   1.00
H3       0.82370    0.86296    0.55451   1.00
H3       0.88802    0.76846    0.60016   1.00
H3       0.77235    0.81299    0.58424   1.00
H3       0.81317    0.75312    0.61320   1.00
C4       0.41576    0.41487    1.14417   1.00
C4       0.41424    0.41513    1.18583   1.00
C3       0.44265    0.39130    1.12346   1.00
C3       0.41869    0.38073    1.20821   1.00
C3       0.38973    0.43754    1.12143   1.00
C3       0.40912    0.45031    1.20687   1.00
C2       0.41738    0.41308    1.05987   1.00
C2       0.41281    0.41666    1.27014   1.00
C3       0.44342    0.39052    1.08215   1.00
C3       0.41791    0.38155    1.24949   1.00
C3       0.39059    0.43662    1.08014   1.00
C3a      0.40833    0.45126    1.24828   1.00
H1       0.46352    0.37360    1.13925   1.00
H1       0.42232    0.35288    1.19375   1.00
H1       0.46447    0.37217    1.06740   1.00
H1       0.42124    0.35455    1.26556   1.00
H1       0.37006    0.45422    1.06382   1.00
C5       0.40302    0.48974    1.26880   1.00
H1       0.40592    0.47753    1.19122   1.00
H1       0.36797    0.45556    1.13559   1.00
H2       0.40229    0.48577    1.30099   1.00
H2       0.42848    0.50866    1.26205   1.00
N1       0.36681    0.50855    1.25625   1.00
C6       0.33047    0.49453    1.26144   1.00
C6       0.36363    0.54314    1.23788   1.00
C6       0.30372    0.52034    1.24602   1.00
C6       0.32482    0.55126    1.23104   1.00
H3       0.32370    0.46704    1.27549   1.00
H3       0.38802    0.56154    1.22984   1.00
H3       0.27235    0.51701    1.24576   1.00
H3       0.31317    0.57688    1.21680   1.00
C4       0.41487    0.64417    0.91576   1.00
C4       0.41513    0.68583    0.91424   1.00
C3       0.39130    0.62346    0.94265   1.00
C3       0.38073    0.70821    0.91869   1.00
C3       0.43754    0.62143    0.88973   1.00
C3       0.45031    0.70687    0.90912   1.00
C2       0.41308    0.55987    0.91738   1.00
C2       0.41666    0.77014    0.91281   1.00
C3       0.39052    0.58215    0.94342   1.00
C3       0.38155    0.74949    0.91791   1.00
C3       0.43662    0.58014    0.89059   1.00
C3a      0.45126    0.74828    0.90833   1.00
H1       0.37360    0.63925    0.96352   1.00
H1       0.35288    0.69375    0.92232   1.00
H1       0.37217    0.56740    0.96447   1.00
H1       0.35455    0.76556    0.92124   1.00
H1       0.45422    0.56382    0.87006   1.00
C5       0.48974    0.76880    0.90302   1.00
H1       0.47753    0.69122    0.90592   1.00
H1       0.45556    0.63559    0.86797   1.00
H2       0.48577    0.80099    0.90229   1.00
H2       0.50866    0.76205    0.92848   1.00
N1       0.50855    0.75625    0.86681   1.00
C6       0.49453    0.76144    0.83047   1.00
C6       0.54314    0.73788    0.86363   1.00
C6       0.52034    0.74602    0.80372   1.00
C6       0.55126    0.73104    0.82482   1.00
H3       0.46704    0.77549    0.82370   1.00
H3       0.56154    0.72984    0.88802   1.00
H3       0.51701    0.74576    0.77235   1.00
H3       0.57688    0.71680    0.81317   1.00
C4       0.18583    0.41576    0.91513   1.00
C4       0.14417    0.41424    0.91487   1.00
C3       0.20654    0.44265    0.93870   1.00
C3       0.12179    0.41869    0.94927   1.00
C3       0.20857    0.38973    0.89246   1.00
C3       0.12313    0.40912    0.87969   1.00
C2       0.27013    0.41738    0.91692   1.00
C2       0.05986    0.41281    0.91334   1.00
C3       0.24785    0.44342    0.93948   1.00
C3       0.08051    0.41791    0.94845   1.00
C3       0.24986    0.39059    0.89338   1.00
C3a      0.08172    0.40833    0.87874   1.00
H1       0.19075    0.46352    0.95640   1.00
H1       0.13625    0.42232    0.97712   1.00
H1       0.26260    0.46447    0.95783   1.00
H1       0.06444    0.42124    0.97545   1.00
H1       0.26618    0.37006    0.87578   1.00
C5       0.06120    0.40302    0.84026   1.00
H1       0.13878    0.40592    0.85247   1.00
H1       0.19441    0.36797    0.87444   1.00
H2       0.02901    0.40229    0.84423   1.00
H2       0.06795    0.42848    0.82134   1.00
N1       0.07375    0.36681    0.82145   1.00
C6       0.06856    0.33047    0.83547   1.00
C6       0.09212    0.36363    0.78686   1.00
C6       0.08398    0.30372    0.80966   1.00
C6       0.09896    0.32482    0.77874   1.00
H3       0.05451    0.32370    0.86296   1.00
H3       0.10016    0.38802    0.76846   1.00
H3       0.08424    0.27235    0.81299   1.00
H3       0.11320    0.31317    0.75312   1.00
C4       0.64417    0.41576    0.91487   1.00
C4       0.68583    0.41424    0.91513   1.00
C3       0.62346    0.44265    0.89130   1.00
C3       0.70821    0.41869    0.88073   1.00
C3       0.62143    0.38973    0.93754   1.00
C3       0.70687    0.40912    0.95031   1.00
C2       0.55987    0.41738    0.91308   1.00
C2       0.77014    0.41281    0.91666   1.00
C3       0.58215    0.44342    0.89052   1.00
C3       0.74949    0.41791    0.88155   1.00
C3       0.58014    0.39059    0.93662   1.00
C3a      0.74828    0.40833    0.95126   1.00
H1       0.63925    0.46352    0.87360   1.00
H1       0.69375    0.42232    0.85288   1.00
H1       0.56740    0.46447    0.87217   1.00
H1       0.76556    0.42124    0.85455   1.00
H1       0.56382    0.37006    0.95422   1.00
C5       0.76880    0.40302    0.98974   1.00
H1       0.69122    0.40592    0.97753   1.00
H1       0.63559    0.36797    0.95556   1.00
H2       0.80099    0.40229    0.98577   1.00
H2       0.76205    0.42848    1.00866   1.00
N1       0.75625    0.36681    1.00855   1.00
C6       0.76144    0.33047    0.99453   1.00
C6       0.73788    0.36363    1.04314   1.00
C6       0.74602    0.30372    1.02034   1.00
C6       0.73104    0.32482    1.05126   1.00
H3       0.77549    0.32370    0.96704   1.00
H3       0.72984    0.38802    1.06154   1.00
H3       0.74576    0.27235    1.01701   1.00
H3       0.71680    0.31317    1.07688   1.00
C4       0.41513    0.18583    0.91576   1.00
C4       0.41487    0.14417    0.91424   1.00
C3       0.43870    0.20654    0.94265   1.00
C3       0.44927    0.12179    0.91869   1.00
C3       0.39246    0.20857    0.88973   1.00
C3       0.37969    0.12313    0.90912   1.00
C2       0.41692    0.27013    0.91738   1.00
C2       0.41334    0.05986    0.91281   1.00
C3       0.43948    0.24785    0.94342   1.00
C3       0.44845    0.08051    0.91791   1.00
C3       0.39338    0.24986    0.89059   1.00
C3a      0.37874    0.08172    0.90833   1.00
H1       0.45640    0.19075    0.96352   1.00
H1       0.47712    0.13625    0.92232   1.00
H1       0.45783    0.26260    0.96447   1.00
H1       0.47545    0.06444    0.92124   1.00
H1       0.37578    0.26618    0.87006   1.00
C5       0.34026    0.06120    0.90302   1.00
H1       0.35247    0.13878    0.90592   1.00
H1       0.37444    0.19441    0.86797   1.00
H2       0.34423    0.02901    0.90229   1.00
H2       0.32134    0.06795    0.92848   1.00
N1       0.32145    0.07375    0.86681   1.00
C6       0.33547    0.06856    0.83047   1.00
C6       0.28686    0.09212    0.86363   1.00
C6       0.30966    0.08398    0.80372   1.00
C6       0.27874    0.09896    0.82482   1.00
H3       0.36296    0.05451    0.82370   1.00
H3       0.26846    0.10016    0.88802   1.00
H3       0.31299    0.08424    0.77235   1.00
H3       0.25312    0.11320    0.81317   1.00
C4       0.41576    0.41513    0.68583   1.00
C4       0.41424    0.41487    0.64417   1.00
C3       0.44265    0.43870    0.70654   1.00
C3       0.41869    0.44927    0.62179   1.00
C3       0.38973    0.39246    0.70857   1.00
C3       0.40912    0.37969    0.62313   1.00
C2       0.41738    0.41692    0.77013   1.00
C2       0.41281    0.41334    0.55986   1.00
C3       0.44342    0.43948    0.74785   1.00
C3       0.41791    0.44845    0.58051   1.00
C3       0.39059    0.39338    0.74986   1.00
C3a      0.40833    0.37874    0.58172   1.00
H1       0.46352    0.45640    0.69075   1.00
H1       0.42232    0.47712    0.63625   1.00
H1       0.46447    0.45783    0.76260   1.00
H1       0.42124    0.47545    0.56444   1.00
H1       0.37006    0.37578    0.76618   1.00
C5       0.40302    0.34026    0.56120   1.00
H1       0.40592    0.35247    0.63878   1.00
H1       0.36797    0.37444    0.69441   1.00
H2       0.40229    0.34423    0.52901   1.00
H2       0.42848    0.32134    0.56795   1.00
N1       0.36681    0.32145    0.57375   1.00
C6       0.33047    0.33547    0.56856   1.00
C6       0.36363    0.28686    0.59212   1.00
C6       0.30372    0.30966    0.58398   1.00
C6       0.32482    0.27874    0.59896   1.00
H3       0.32370    0.36296    0.55451   1.00
H3       0.38802    0.26846    0.60016   1.00
H3       0.27235    0.31299    0.58424   1.00
H3       0.31317    0.25312    0.61320   1.00
C4       0.41576    0.91487    0.64417   1.00
C4       0.41424    0.91513    0.68583   1.00
C3       0.44265    0.89130    0.62346   1.00
C3       0.41869    0.88073    0.70821   1.00
C3       0.38973    0.93754    0.62143   1.00
C3       0.40912    0.95031    0.70687   1.00
C2       0.41738    0.91308    0.55987   1.00
C2       0.41281    0.91666    0.77014   1.00
C3       0.44342    0.89052    0.58215   1.00
C3       0.41791    0.88155    0.74949   1.00
C3       0.39059    0.93662    0.58014   1.00
C3a      0.40833    0.95126    0.74828   1.00
H1       0.46352    0.87360    0.63925   1.00
H1       0.42232    0.85288    0.69375   1.00
H1       0.46447    0.87217    0.56740   1.00
H1       0.42124    0.85455    0.76556   1.00
H1       0.37006    0.95422    0.56382   1.00
C5       0.40302    0.98974    0.76880   1.00
H1       0.40592    0.97753    0.69122   1.00
H1       0.36797    0.95556    0.63559   1.00
H2       0.40229    0.98577    0.80099   1.00
H2       0.42848    1.00866    0.76205   1.00
N1       0.36681    1.00855    0.75625   1.00
C6       0.33047    0.99453    0.76144   1.00
C6       0.36363    1.04314    0.73788   1.00
C6       0.30372    1.02034    0.74602   1.00
C6       0.32482    1.05126    0.73104   1.00
H3       0.32370    0.96704    0.77549   1.00
H3       0.38802    1.06154    0.72984   1.00
H3       0.27235    1.01701    0.74576   1.00
H3       0.31317    1.07688    0.71680   1.00
C4       0.41487    1.14417    0.41576   1.00
C4       0.41513    1.18583    0.41424   1.00
C3       0.39130    1.12346    0.44265   1.00
C3       0.38073    1.20821    0.41869   1.00
C3       0.43754    1.12143    0.38973   1.00
C3       0.45031    1.20687    0.40912   1.00
C2       0.41308    1.05987    0.41738   1.00
C2       0.41666    1.27014    0.41281   1.00
C3       0.39052    1.08215    0.44342   1.00
C3       0.38155    1.24949    0.41791   1.00
C3       0.43662    1.08014    0.39059   1.00
C3a      0.45126    1.24828    0.40833   1.00
H1       0.37360    1.13925    0.46352   1.00
H1       0.35288    1.19375    0.42232   1.00
H1       0.37217    1.06740    0.46447   1.00
H1       0.35455    1.26556    0.42124   1.00
H1       0.45422    1.06382    0.37006   1.00
C5       0.48974    1.26880    0.40302   1.00
H1       0.47753    1.19122    0.40592   1.00
H1       0.45556    1.13559    0.36797   1.00
H2       0.48577    1.30099    0.40229   1.00
H2       0.50866    1.26205    0.42848   1.00
N1       0.50855    1.25625    0.36681   1.00
C6       0.49453    1.26144    0.33047   1.00
C6       0.54314    1.23788    0.36363   1.00
C6       0.52034    1.24602    0.30372   1.00
C6       0.55126    1.23104    0.32482   1.00
H3       0.46704    1.27549    0.32370   1.00
H3       0.56154    1.22984    0.38802   1.00
H3       0.51701    1.24576    0.27235   1.00
H3       0.57688    1.21680    0.31317   1.00
C4       0.18583    0.91576    0.41513   1.00
C4       0.14417    0.91424    0.41487   1.00
C3       0.20654    0.94265    0.43870   1.00
C3       0.12179    0.91869    0.44927   1.00
C3       0.20857    0.88973    0.39246   1.00
C3       0.12313    0.90912    0.37969   1.00
C2       0.27013    0.91738    0.41692   1.00
C2       0.05986    0.91281    0.41334   1.00
C3       0.24785    0.94342    0.43948   1.00
C3       0.08051    0.91791    0.44845   1.00
C3       0.24986    0.89059    0.39338   1.00
C3a      0.08172    0.90833    0.37874   1.00
H1       0.19075    0.96352    0.45640   1.00
H1       0.13625    0.92232    0.47712   1.00
H1       0.26260    0.96447    0.45783   1.00
H1       0.06444    0.92124    0.47545   1.00
H1       0.26618    0.87006    0.37578   1.00
C5       0.06120    0.90302    0.34026   1.00
H1       0.13878    0.90592    0.35247   1.00
H1       0.19441    0.86797    0.37444   1.00
H2       0.02901    0.90229    0.34423   1.00
H2       0.06795    0.92848    0.32134   1.00
N1       0.07375    0.86681    0.32145   1.00
C6       0.06856    0.83047    0.33547   1.00
C6       0.09212    0.86363    0.28686   1.00
C6       0.08398    0.80372    0.30966   1.00
C6       0.09896    0.82482    0.27874   1.00
H3       0.05451    0.82370    0.36296   1.00
H3       0.10016    0.88802    0.26846   1.00
H3       0.08424    0.77235    0.31299   1.00
H3       0.11320    0.81317    0.25312   1.00
C4       0.64417    0.91576    0.41487   1.00
C4       0.68583    0.91424    0.41513   1.00
C3       0.62346    0.94265    0.39130   1.00
C3       0.70821    0.91869    0.38073   1.00
C3       0.62143    0.88973    0.43754   1.00
C3       0.70687    0.90912    0.45031   1.00
C2       0.55987    0.91738    0.41308   1.00
C2       0.77014    0.91281    0.41666   1.00
C3       0.58215    0.94342    0.39052   1.00
C3       0.74949    0.91791    0.38155   1.00
C3       0.58014    0.89059    0.43662   1.00
C3a      0.74828    0.90833    0.45126   1.00
H1       0.63925    0.96352    0.37360   1.00
H1       0.69375    0.92232    0.35288   1.00
H1       0.56740    0.96447    0.37217   1.00
H1       0.76556    0.92124    0.35455   1.00
H1       0.56382    0.87006    0.45422   1.00
C5       0.76880    0.90302    0.48974   1.00
H1       0.69122    0.90592    0.47753   1.00
H1       0.63559    0.86797    0.45556   1.00
H2       0.80099    0.90229    0.48577   1.00
H2       0.76205    0.92848    0.50866   1.00
N1       0.75625    0.86681    0.50855   1.00
C6       0.76144    0.83047    0.49453   1.00
C6       0.73788    0.86363    0.54314   1.00
C6       0.74602    0.80372    0.52034   1.00
C6       0.73104    0.82482    0.55126   1.00
H3       0.77549    0.82370    0.46704   1.00
H3       0.72984    0.88802    0.56154   1.00
H3       0.74576    0.77235    0.51701   1.00
H3       0.71680    0.81317    0.57688   1.00
C4       0.41513    0.68583    0.41576   1.00
C4       0.41487    0.64417    0.41424   1.00
C3       0.43870    0.70654    0.44265   1.00
C3       0.44927    0.62179    0.41869   1.00
C3       0.39246    0.70857    0.38973   1.00
C3       0.37969    0.62313    0.40912   1.00
C2       0.41692    0.77013    0.41738   1.00
C2       0.41334    0.55986    0.41281   1.00
C3       0.43948    0.74785    0.44342   1.00
C3       0.44845    0.58051    0.41791   1.00
C3       0.39338    0.74986    0.39059   1.00
C3a      0.37874    0.58172    0.40833   1.00
H1       0.45640    0.69075    0.46352   1.00
H1       0.47712    0.63625    0.42232   1.00
H1       0.45783    0.76260    0.46447   1.00
H1       0.47545    0.56444    0.42124   1.00
H1       0.37578    0.76618    0.37006   1.00
C5       0.34026    0.56120    0.40302   1.00
H1       0.35247    0.63878    0.40592   1.00
H1       0.37444    0.69441    0.36797   1.00
H2       0.34423    0.52901    0.40229   1.00
H2       0.32134    0.56795    0.42848   1.00
N1       0.32145    0.57375    0.36681   1.00
C6       0.33547    0.56856    0.33047   1.00
C6       0.28686    0.59212    0.36363   1.00
C6       0.30966    0.58398    0.30372   1.00
C6       0.27874    0.59896    0.32482   1.00
H3       0.36296    0.55451    0.32370   1.00
H3       0.26846    0.60016    0.38802   1.00
H3       0.31299    0.58424    0.27235   1.00
H3       0.25312    0.61320    0.31317   1.00
C4       0.41576    0.91513    0.18583   1.00
C4       0.41424    0.91487    0.14417   1.00
C3       0.44265    0.93870    0.20654   1.00
C3       0.41869    0.94927    0.12179   1.00
C3       0.38973    0.89246    0.20857   1.00
C3       0.40912    0.87969    0.12313   1.00
C2       0.41738    0.91692    0.27013   1.00
C2       0.41281    0.91334    0.05986   1.00
C3       0.44342    0.93948    0.24785   1.00
C3       0.41791    0.94845    0.08051   1.00
C3       0.39059    0.89338    0.24986   1.00
C3a      0.40833    0.87874    0.08172   1.00
H1       0.46352    0.95640    0.19075   1.00
H1       0.42232    0.97712    0.13625   1.00
H1       0.46447    0.95783    0.26260   1.00
H1       0.42124    0.97545    0.06444   1.00
H1       0.37006    0.87578    0.26618   1.00
C5       0.40302    0.84026    0.06120   1.00
H1       0.40592    0.85247    0.13878   1.00
H1       0.36797    0.87444    0.19441   1.00
H2       0.40229    0.84423    0.02901   1.00
H2       0.42848    0.82134    0.06795   1.00
N1       0.36681    0.82145    0.07375   1.00
C6       0.33047    0.83547    0.06856   1.00
C6       0.36363    0.78686    0.09212   1.00
C6       0.30372    0.80966    0.08398   1.00
C6       0.32482    0.77874    0.09896   1.00
H3       0.32370    0.86296    0.05451   1.00
H3       0.38802    0.76846    0.10016   1.00
H3       0.27235    0.81299    0.08424   1.00
H3       0.31317    0.75312    0.11320   1.00
C4       0.91576    0.41487    0.64417   1.00
C4       0.91424    0.41513    0.68583   1.00
C3       0.94265    0.39130    0.62346   1.00
C3       0.91869    0.38073    0.70821   1.00
C3       0.88973    0.43754    0.62143   1.00
C3       0.90912    0.45031    0.70687   1.00
C2       0.91738    0.41308    0.55987   1.00
C2       0.91281    0.41666    0.77014   1.00
C3       0.94342    0.39052    0.58215   1.00
C3       0.91791    0.38155    0.74949   1.00
C3       0.89059    0.43662    0.58014   1.00
C3a      0.90833    0.45126    0.74828   1.00
H1       0.96352    0.37360    0.63925   1.00
H1       0.92232    0.35288    0.69375   1.00
H1       0.96447    0.37217    0.56740   1.00
H1       0.92124    0.35455    0.76556   1.00
H1       0.87006    0.45422    0.56382   1.00
C5       0.90302    0.48974    0.76880   1.00
H1       0.90592    0.47753    0.69122   1.00
H1       0.86797    0.45556    0.63559   1.00
H2       0.90229    0.48577    0.80099   1.00
H2       0.92848    0.50866    0.76205   1.00
N1       0.86681    0.50855    0.75625   1.00
C6       0.83047    0.49453    0.76144   1.00
C6       0.86363    0.54314    0.73788   1.00
C6       0.80372    0.52034    0.74602   1.00
C6       0.82482    0.55126    0.73104   1.00
H3       0.82370    0.46704    0.77549   1.00
H3       0.88802    0.56154    0.72984   1.00
H3       0.77235    0.51701    0.74576   1.00
H3       0.81317    0.57688    0.71680   1.00
C4       0.91487    0.64417    0.41576   1.00
C4       0.91513    0.68583    0.41424   1.00
C3       0.89130    0.62346    0.44265   1.00
C3       0.88073    0.70821    0.41869   1.00
C3       0.93754    0.62143    0.38973   1.00
C3       0.95031    0.70687    0.40912   1.00
C2       0.91308    0.55987    0.41738   1.00
C2       0.91666    0.77014    0.41281   1.00
C3       0.89052    0.58215    0.44342   1.00
C3       0.88155    0.74949    0.41791   1.00
C3       0.93662    0.58014    0.39059   1.00
C3a      0.95126    0.74828    0.40833   1.00
H1       0.87360    0.63925    0.46352   1.00
H1       0.85288    0.69375    0.42232   1.00
H1       0.87217    0.56740    0.46447   1.00
H1       0.85455    0.76556    0.42124   1.00
H1       0.95422    0.56382    0.37006   1.00
C5       0.98974    0.76880    0.40302   1.00
H1       0.97753    0.69122    0.40592   1.00
H1       0.95556    0.63559    0.36797   1.00
H2       0.98577    0.80099    0.40229   1.00
H2       1.00866    0.76205    0.42848   1.00
N1       1.00855    0.75625    0.36681   1.00
C6       0.99453    0.76144    0.33047   1.00
C6       1.04314    0.73788    0.36363   1.00
C6       1.02034    0.74602    0.30372   1.00
C6       1.05126    0.73104    0.32482   1.00
H3       0.96704    0.77549    0.32370   1.00
H3       1.06154    0.72984    0.38802   1.00
H3       1.01701    0.74576    0.27235   1.00
H3       1.07688    0.71680    0.31317   1.00
C4       0.68583    0.41576    0.41513   1.00
C4       0.64417    0.41424    0.41487   1.00
C3       0.70654    0.44265    0.43870   1.00
C3       0.62179    0.41869    0.44927   1.00
C3       0.70857    0.38973    0.39246   1.00
C3       0.62313    0.40912    0.37969   1.00
C2       0.77013    0.41738    0.41692   1.00
C2       0.55986    0.41281    0.41334   1.00
C3       0.74785    0.44342    0.43948   1.00
C3       0.58051    0.41791    0.44845   1.00
C3       0.74986    0.39059    0.39338   1.00
C3a      0.58172    0.40833    0.37874   1.00
H1       0.69075    0.46352    0.45640   1.00
H1       0.63625    0.42232    0.47712   1.00
H1       0.76260    0.46447    0.45783   1.00
H1       0.56444    0.42124    0.47545   1.00
H1       0.76618    0.37006    0.37578   1.00
C5       0.56120    0.40302    0.34026   1.00
H1       0.63878    0.40592    0.35247   1.00
H1       0.69441    0.36797    0.37444   1.00
H2       0.52901    0.40229    0.34423   1.00
H2       0.56795    0.42848    0.32134   1.00
N1       0.57375    0.36681    0.32145   1.00
C6       0.56856    0.33047    0.33547   1.00
C6       0.59212    0.36363    0.28686   1.00
C6       0.58398    0.30372    0.30966   1.00
C6       0.59896    0.32482    0.27874   1.00
H3       0.55451    0.32370    0.36296   1.00
H3       0.60016    0.38802    0.26846   1.00
H3       0.58424    0.27235    0.31299   1.00
H3       0.61320    0.31317    0.25312   1.00
C4       1.14417    0.41576    0.41487   1.00
C4       1.18583    0.41424    0.41513   1.00
C3       1.12346    0.44265    0.39130   1.00
C3       1.20821    0.41869    0.38073   1.00
C3       1.12143    0.38973    0.43754   1.00
C3       1.20687    0.40912    0.45031   1.00
C2       1.05987    0.41738    0.41308   1.00
C2       1.27014    0.41281    0.41666   1.00
C3       1.08215    0.44342    0.39052   1.00
C3       1.24949    0.41791    0.38155   1.00
C3       1.08014    0.39059    0.43662   1.00
C3a      1.24828    0.40833    0.45126   1.00
H1       1.13925    0.46352    0.37360   1.00
H1       1.19375    0.42232    0.35288   1.00
H1       1.06740    0.46447    0.37217   1.00
H1       1.26556    0.42124    0.35455   1.00
H1       1.06382    0.37006    0.45422   1.00
C5       1.26880    0.40302    0.48974   1.00
H1       1.19122    0.40592    0.47753   1.00
H1       1.13559    0.36797    0.45556   1.00
H2       1.30099    0.40229    0.48577   1.00
H2       1.26205    0.42848    0.50866   1.00
N1       1.25625    0.36681    0.50855   1.00
C6       1.26144    0.33047    0.49453   1.00
C6       1.23788    0.36363    0.54314   1.00
C6       1.24602    0.30372    0.52034   1.00
C6       1.23104    0.32482    0.55126   1.00
H3       1.27549    0.32370    0.46704   1.00
H3       1.22984    0.38802    0.56154   1.00
H3       1.24576    0.27235    0.51701   1.00
H3       1.21680    0.31317    0.57688   1.00
C4       0.91513    0.18583    0.41576   1.00
C4       0.91487    0.14417    0.41424   1.00
C3       0.93870    0.20654    0.44265   1.00
C3       0.94927    0.12179    0.41869   1.00
C3       0.89246    0.20857    0.38973   1.00
C3       0.87969    0.12313    0.40912   1.00
C2       0.91692    0.27013    0.41738   1.00
C2       0.91334    0.05986    0.41281   1.00
C3       0.93948    0.24785    0.44342   1.00
C3       0.94845    0.08051    0.41791   1.00
C3       0.89338    0.24986    0.39059   1.00
C3a      0.87874    0.08172    0.40833   1.00
H1       0.95640    0.19075    0.46352   1.00
H1       0.97712    0.13625    0.42232   1.00
H1       0.95783    0.26260    0.46447   1.00
H1       0.97545    0.06444    0.42124   1.00
H1       0.87578    0.26618    0.37006   1.00
C5       0.84026    0.06120    0.40302   1.00
H1       0.85247    0.13878    0.40592   1.00
H1       0.87444    0.19441    0.36797   1.00
H2       0.84423    0.02901    0.40229   1.00
H2       0.82134    0.06795    0.42848   1.00
N1       0.82145    0.07375    0.36681   1.00
C6       0.83547    0.06856    0.33047   1.00
C6       0.78686    0.09212    0.36363   1.00
C6       0.80966    0.08398    0.30372   1.00
C6       0.77874    0.09896    0.32482   1.00
H3       0.86296    0.05451    0.32370   1.00
H3       0.76846    0.10016    0.38802   1.00
H3       0.81299    0.08424    0.27235   1.00
H3       0.75312    0.11320    0.31317   1.00
C4       0.91576    0.41513    0.18583   1.00
C4       0.91424    0.41487    0.14417   1.00
C3       0.94265    0.43870    0.20654   1.00
C3       0.91869    0.44927    0.12179   1.00
C3       0.88973    0.39246    0.20857   1.00
C3       0.90912    0.37969    0.12313   1.00
C2       0.91738    0.41692    0.27013   1.00
C2       0.91281    0.41334    0.05986   1.00
C3       0.94342    0.43948    0.24785   1.00
C3       0.91791    0.44845    0.08051   1.00
C3       0.89059    0.39338    0.24986   1.00
C3a      0.90833    0.37874    0.08172   1.00
H1       0.96352    0.45640    0.19075   1.00
H1       0.92232    0.47712    0.13625   1.00
H1       0.96447    0.45783    0.26260   1.00
H1       0.92124    0.47545    0.06444   1.00
H1       0.87006    0.37578    0.26618   1.00
C5       0.90302    0.34026    0.06120   1.00
H1       0.90592    0.35247    0.13878   1.00
H1       0.86797    0.37444    0.19441   1.00
H2       0.90229    0.34423    0.02901   1.00
H2       0.92848    0.32134    0.06795   1.00
N1       0.86681    0.32145    0.07375   1.00
C6       0.83047    0.33547    0.06856   1.00
C6       0.86363    0.28686    0.09212   1.00
C6       0.80372    0.30966    0.08398   1.00
C6       0.82482    0.27874    0.09896   1.00
H3       0.82370    0.36296    0.05451   1.00
H3       0.88802    0.26846    0.10016   1.00
H3       0.77235    0.31299    0.08424   1.00
H3       0.81317    0.25312    0.11320   1.00
