data_IRMOF10_SG202_interpen_Ligand8cp_label_u.

_audit_creation_method             'generated by an auxiliary program of Tobunporous'

_symmetry_space_group_name_H-M     'P 1'
_symmetry_Int_Tables_number        1
_symmetry_cell_setting             triclinic

_cell_length_a                    34.2800
_cell_length_b                    34.2800
_cell_length_c                    34.2800
_cell_angle_alpha                 90.0000
_cell_angle_beta                  90.0000
_cell_angle_gamma                 90.0000

loop_
_atom_site_label
_atom_site_fract_x
_atom_site_fract_y
_atom_site_fract_z
_atom_site_occupancy
O1       0.75000    0.75000    0.75000   1.00
Zn1      0.71720    0.78280    0.78280   1.00
Zn1      0.78280    0.71720    0.78280   1.00
Zn1      0.78280    0.78280    0.71720   1.00
Zn1      0.71720    0.71720    0.71720   1.00
O2       0.72650    0.77350    0.83820   1.00
O2       0.72650    0.83820    0.77350   1.00
O2       0.66180    0.77350    0.77350   1.00
O2       0.77350    0.72650    0.83820   1.00
O2       0.83820    0.72650    0.77350   1.00
O2       0.77350    0.66180    0.77350   1.00
O2       0.77350    0.83820    0.72650   1.00
O2       0.83820    0.77350    0.72650   1.00
O2       0.77350    0.77350    0.66180   1.00
O2       0.66180    0.72650    0.72650   1.00
O2       0.72650    0.66180    0.72650   1.00
O2       0.72650    0.72650    0.66180   1.00
C1       0.75000    0.75000    0.85520   1.00
C1       0.75000    0.85520    0.75000   1.00
C1       0.64480    0.75000    0.75000   1.00
C1       0.85520    0.75000    0.75000   1.00
C1       0.75000    0.64480    0.75000   1.00
C1       0.75000    0.75000    0.64480   1.00
O1       0.25000    0.25000    0.75000   1.00
Zn1      0.21720    0.28280    0.78280   1.00
Zn1      0.28280    0.21720    0.78280   1.00
Zn1      0.28280    0.28280    0.71720   1.00
Zn1      0.21720    0.21720    0.71720   1.00
O2       0.22650    0.27350    0.83820   1.00
O2       0.22650    0.33820    0.77350   1.00
O2       0.16180    0.27350    0.77350   1.00
O2       0.27350    0.22650    0.83820   1.00
O2       0.33820    0.22650    0.77350   1.00
O2       0.27350    0.16180    0.77350   1.00
O2       0.27350    0.33820    0.72650   1.00
O2       0.33820    0.27350    0.72650   1.00
O2       0.27350    0.27350    0.66180   1.00
O2       0.16180    0.22650    0.72650   1.00
O2       0.22650    0.16180    0.72650   1.00
O2       0.22650    0.22650    0.66180   1.00
C1       0.25000    0.25000    0.85520   1.00
C1       0.25000    0.35520    0.75000   1.00
C1       0.14480    0.25000    0.75000   1.00
C1       0.35520    0.25000    0.75000   1.00
C1       0.25000    0.14480    0.75000   1.00
C1       0.25000    0.25000    0.64480   1.00
O1       0.25000    0.75000    0.25000   1.00
Zn1      0.21720    0.78280    0.28280   1.00
Zn1      0.28280    0.71720    0.28280   1.00
Zn1      0.28280    0.78280    0.21720   1.00
Zn1      0.21720    0.71720    0.21720   1.00
O2       0.22650    0.77350    0.33820   1.00
O2       0.22650    0.83820    0.27350   1.00
O2       0.16180    0.77350    0.27350   1.00
O2       0.27350    0.72650    0.33820   1.00
O2       0.33820    0.72650    0.27350   1.00
O2       0.27350    0.66180    0.27350   1.00
O2       0.27350    0.83820    0.22650   1.00
O2       0.33820    0.77350    0.22650   1.00
O2       0.27350    0.77350    0.16180   1.00
O2       0.16180    0.72650    0.22650   1.00
O2       0.22650    0.66180    0.22650   1.00
O2       0.22650    0.72650    0.16180   1.00
C1       0.25000    0.75000    0.35520   1.00
C1       0.25000    0.85520    0.25000   1.00
C1       0.14480    0.75000    0.25000   1.00
C1       0.35520    0.75000    0.25000   1.00
C1       0.25000    0.64480    0.25000   1.00
C1       0.25000    0.75000    0.14480   1.00
O1       0.75000    0.25000    0.25000   1.00
Zn1      0.71720    0.28280    0.28280   1.00
Zn1      0.78280    0.21720    0.28280   1.00
Zn1      0.78280    0.28280    0.21720   1.00
Zn1      0.71720    0.21720    0.21720   1.00
O2       0.72650    0.27350    0.33820   1.00
O2       0.72650    0.33820    0.27350   1.00
O2       0.66180    0.27350    0.27350   1.00
O2       0.77350    0.22650    0.33820   1.00
O2       0.83820    0.22650    0.27350   1.00
O2       0.77350    0.16180    0.27350   1.00
O2       0.77350    0.33820    0.22650   1.00
O2       0.83820    0.27350    0.22650   1.00
O2       0.77350    0.27350    0.16180   1.00
O2       0.66180    0.22650    0.22650   1.00
O2       0.72650    0.16180    0.22650   1.00
O2       0.72650    0.22650    0.16180   1.00
C1       0.75000    0.25000    0.35520   1.00
C1       0.75000    0.35520    0.25000   1.00
C1       0.64480    0.25000    0.25000   1.00
C1       0.85520    0.25000    0.25000   1.00
C1       0.75000    0.14480    0.25000   1.00
C1       0.75000    0.25000    0.14480   1.00
O1       0.25000    0.25000    0.25000   1.00
Zn1      0.28280    0.21720    0.21720   1.00
Zn1      0.21720    0.28280    0.21720   1.00
Zn1      0.21720    0.21720    0.28280   1.00
Zn1      0.28280    0.28280    0.28280   1.00
O2       0.27350    0.22650    0.16180   1.00
O2       0.27350    0.16180    0.22650   1.00
O2       0.33820    0.22650    0.22650   1.00
O2       0.22650    0.27350    0.16180   1.00
O2       0.16180    0.27350    0.22650   1.00
O2       0.22650    0.33820    0.22650   1.00
O2       0.22650    0.16180    0.27350   1.00
O2       0.16180    0.22650    0.27350   1.00
O2       0.22650    0.22650    0.33820   1.00
O2       0.33820    0.27350    0.27350   1.00
O2       0.27350    0.33820    0.27350   1.00
O2       0.27350    0.27350    0.33820   1.00
C1       0.25000    0.25000    0.14480   1.00
C1       0.25000    0.14480    0.25000   1.00
C1       0.35520    0.25000    0.25000   1.00
C1       0.14480    0.25000    0.25000   1.00
C1       0.25000    0.35520    0.25000   1.00
C1       0.25000    0.25000    0.35520   1.00
O1       0.75000    0.75000    0.25000   1.00
Zn1      0.78280    0.71720    0.21720   1.00
Zn1      0.71720    0.78280    0.21720   1.00
Zn1      0.71720    0.71720    0.28280   1.00
Zn1      0.78280    0.78280    0.28280   1.00
O2       0.77350    0.72650    0.16180   1.00
O2       0.77350    0.66180    0.22650   1.00
O2       0.83820    0.72650    0.22650   1.00
O2       0.72650    0.77350    0.16180   1.00
O2       0.66180    0.77350    0.22650   1.00
O2       0.72650    0.83820    0.22650   1.00
O2       0.72650    0.66180    0.27350   1.00
O2       0.66180    0.72650    0.27350   1.00
O2       0.72650    0.72650    0.33820   1.00
O2       0.83820    0.77350    0.27350   1.00
O2       0.77350    0.83820    0.27350   1.00
O2       0.77350    0.77350    0.33820   1.00
C1       0.75000    0.75000    0.14480   1.00
C1       0.75000    0.64480    0.25000   1.00
C1       0.85520    0.75000    0.25000   1.00
C1       0.64480    0.75000    0.25000   1.00
C1       0.75000    0.85520    0.25000   1.00
C1       0.75000    0.75000    0.35520   1.00
O1       0.75000    0.25000    0.75000   1.00
Zn1      0.78280    0.21720    0.71720   1.00
Zn1      0.71720    0.28280    0.71720   1.00
Zn1      0.71720    0.21720    0.78280   1.00
Zn1      0.78280    0.28280    0.78280   1.00
O2       0.77350    0.22650    0.66180   1.00
O2       0.77350    0.16180    0.72650   1.00
O2       0.83820    0.22650    0.72650   1.00
O2       0.72650    0.27350    0.66180   1.00
O2       0.66180    0.27350    0.72650   1.00
O2       0.72650    0.33820    0.72650   1.00
O2       0.72650    0.16180    0.77350   1.00
O2       0.66180    0.22650    0.77350   1.00
O2       0.72650    0.22650    0.83820   1.00
O2       0.83820    0.27350    0.77350   1.00
O2       0.77350    0.33820    0.77350   1.00
O2       0.77350    0.27350    0.83820   1.00
C1       0.75000    0.25000    0.64480   1.00
C1       0.75000    0.14480    0.75000   1.00
C1       0.85520    0.25000    0.75000   1.00
C1       0.64480    0.25000    0.75000   1.00
C1       0.75000    0.35520    0.75000   1.00
C1       0.75000    0.25000    0.85520   1.00
O1       0.25000    0.75000    0.75000   1.00
Zn1      0.28280    0.71720    0.71720   1.00
Zn1      0.21720    0.78280    0.71720   1.00
Zn1      0.21720    0.71720    0.78280   1.00
Zn1      0.28280    0.78280    0.78280   1.00
O2       0.27350    0.72650    0.66180   1.00
O2       0.27350    0.66180    0.72650   1.00
O2       0.33820    0.72650    0.72650   1.00
O2       0.22650    0.77350    0.66180   1.00
O2       0.16180    0.77350    0.72650   1.00
O2       0.22650    0.83820    0.72650   1.00
O2       0.22650    0.66180    0.77350   1.00
O2       0.16180    0.72650    0.77350   1.00
O2       0.22650    0.72650    0.83820   1.00
O2       0.33820    0.77350    0.77350   1.00
O2       0.27350    0.83820    0.77350   1.00
O2       0.27350    0.77350    0.83820   1.00
C1       0.25000    0.75000    0.64480   1.00
C1       0.25000    0.64480    0.75000   1.00
C1       0.35520    0.75000    0.75000   1.00
C1       0.14480    0.75000    0.75000   1.00
C1       0.25000    0.85520    0.75000   1.00
C1       0.25000    0.75000    0.85520   1.00
O1       0.91500    0.91500    0.91500   1.00
Zn1      0.88220    0.94780    0.94780   1.00
Zn1      0.94780    0.88220    0.94780   1.00
Zn1      0.94780    0.94780    0.88220   1.00
Zn1      0.88220    0.88220    0.88220   1.00
O2       0.89150    0.93850    1.00320   1.00
O2       0.89150    1.00320    0.93850   1.00
O2       0.82680    0.93850    0.93850   1.00
O2       0.93850    0.89150    1.00320   1.00
O2       1.00320    0.89150    0.93850   1.00
O2       0.93850    0.82680    0.93850   1.00
O2       0.93850    1.00320    0.89150   1.00
O2       1.00320    0.93850    0.89150   1.00
O2       0.93850    0.93850    0.82680   1.00
O2       0.82680    0.89150    0.89150   1.00
O2       0.89150    0.82680    0.89150   1.00
O2       0.89150    0.89150    0.82680   1.00
C1       0.91500    0.91500    1.02020   1.00
C1       0.91500    1.02020    0.91500   1.00
C1       0.80980    0.91500    0.91500   1.00
C1       1.02020    0.91500    0.91500   1.00
C1       0.91500    0.80980    0.91500   1.00
C1       0.91500    0.91500    0.80980   1.00
O1       0.41500    0.41500    0.91500   1.00
Zn1      0.38220    0.44780    0.94780   1.00
Zn1      0.44780    0.38220    0.94780   1.00
Zn1      0.44780    0.44780    0.88220   1.00
Zn1      0.38220    0.38220    0.88220   1.00
O2       0.39150    0.43850    1.00320   1.00
O2       0.39150    0.50320    0.93850   1.00
O2       0.32680    0.43850    0.93850   1.00
O2       0.43850    0.39150    1.00320   1.00
O2       0.50320    0.39150    0.93850   1.00
O2       0.43850    0.32680    0.93850   1.00
O2       0.43850    0.50320    0.89150   1.00
O2       0.50320    0.43850    0.89150   1.00
O2       0.43850    0.43850    0.82680   1.00
O2       0.32680    0.39150    0.89150   1.00
O2       0.39150    0.32680    0.89150   1.00
O2       0.39150    0.39150    0.82680   1.00
C1       0.41500    0.41500    1.02020   1.00
C1       0.41500    0.52020    0.91500   1.00
C1       0.30980    0.41500    0.91500   1.00
C1       0.52020    0.41500    0.91500   1.00
C1       0.41500    0.30980    0.91500   1.00
C1       0.41500    0.41500    0.80980   1.00
O1       0.41500    0.91500    0.41500   1.00
Zn1      0.38220    0.94780    0.44780   1.00
Zn1      0.44780    0.88220    0.44780   1.00
Zn1      0.44780    0.94780    0.38220   1.00
Zn1      0.38220    0.88220    0.38220   1.00
O2       0.39150    0.93850    0.50320   1.00
O2       0.39150    1.00320    0.43850   1.00
O2       0.32680    0.93850    0.43850   1.00
O2       0.43850    0.89150    0.50320   1.00
O2       0.50320    0.89150    0.43850   1.00
O2       0.43850    0.82680    0.43850   1.00
O2       0.43850    1.00320    0.39150   1.00
O2       0.50320    0.93850    0.39150   1.00
O2       0.43850    0.93850    0.32680   1.00
O2       0.32680    0.89150    0.39150   1.00
O2       0.39150    0.82680    0.39150   1.00
O2       0.39150    0.89150    0.32680   1.00
C1       0.41500    0.91500    0.52020   1.00
C1       0.41500    1.02020    0.41500   1.00
C1       0.30980    0.91500    0.41500   1.00
C1       0.52020    0.91500    0.41500   1.00
C1       0.41500    0.80980    0.41500   1.00
C1       0.41500    0.91500    0.30980   1.00
O1       0.91500    0.41500    0.41500   1.00
Zn1      0.88220    0.44780    0.44780   1.00
Zn1      0.94780    0.38220    0.44780   1.00
Zn1      0.94780    0.44780    0.38220   1.00
Zn1      0.88220    0.38220    0.38220   1.00
O2       0.89150    0.43850    0.50320   1.00
O2       0.89150    0.50320    0.43850   1.00
O2       0.82680    0.43850    0.43850   1.00
O2       0.93850    0.39150    0.50320   1.00
O2       1.00320    0.39150    0.43850   1.00
O2       0.93850    0.32680    0.43850   1.00
O2       0.93850    0.50320    0.39150   1.00
O2       1.00320    0.43850    0.39150   1.00
O2       0.93850    0.43850    0.32680   1.00
O2       0.82680    0.39150    0.39150   1.00
O2       0.89150    0.32680    0.39150   1.00
O2       0.89150    0.39150    0.32680   1.00
C1       0.91500    0.41500    0.52020   1.00
C1       0.91500    0.52020    0.41500   1.00
C1       0.80980    0.41500    0.41500   1.00
C1       1.02020    0.41500    0.41500   1.00
C1       0.91500    0.30980    0.41500   1.00
C1       0.91500    0.41500    0.30980   1.00
O1       0.41500    0.41500    0.41500   1.00
Zn1      0.44780    0.38220    0.38220   1.00
Zn1      0.38220    0.44780    0.38220   1.00
Zn1      0.38220    0.38220    0.44780   1.00
Zn1      0.44780    0.44780    0.44780   1.00
O2       0.43850    0.39150    0.32680   1.00
O2       0.43850    0.32680    0.39150   1.00
O2       0.50320    0.39150    0.39150   1.00
O2       0.39150    0.43850    0.32680   1.00
O2       0.32680    0.43850    0.39150   1.00
O2       0.39150    0.50320    0.39150   1.00
O2       0.39150    0.32680    0.43850   1.00
O2       0.32680    0.39150    0.43850   1.00
O2       0.39150    0.39150    0.50320   1.00
O2       0.50320    0.43850    0.43850   1.00
O2       0.43850    0.50320    0.43850   1.00
O2       0.43850    0.43850    0.50320   1.00
C1       0.41500    0.41500    0.30980   1.00
C1       0.41500    0.30980    0.41500   1.00
C1       0.52020    0.41500    0.41500   1.00
C1       0.30980    0.41500    0.41500   1.00
C1       0.41500    0.52020    0.41500   1.00
C1       0.41500    0.41500    0.52020   1.00
O1       0.91500    0.91500    0.41500   1.00
Zn1      0.94780    0.88220    0.38220   1.00
Zn1      0.88220    0.94780    0.38220   1.00
Zn1      0.88220    0.88220    0.44780   1.00
Zn1      0.94780    0.94780    0.44780   1.00
O2       0.93850    0.89150    0.32680   1.00
O2       0.93850    0.82680    0.39150   1.00
O2       1.00320    0.89150    0.39150   1.00
O2       0.89150    0.93850    0.32680   1.00
O2       0.82680    0.93850    0.39150   1.00
O2       0.89150    1.00320    0.39150   1.00
O2       0.89150    0.82680    0.43850   1.00
O2       0.82680    0.89150    0.43850   1.00
O2       0.89150    0.89150    0.50320   1.00
O2       1.00320    0.93850    0.43850   1.00
O2       0.93850    1.00320    0.43850   1.00
O2       0.93850    0.93850    0.50320   1.00
C1       0.91500    0.91500    0.30980   1.00
C1       0.91500    0.80980    0.41500   1.00
C1       1.02020    0.91500    0.41500   1.00
C1       0.80980    0.91500    0.41500   1.00
C1       0.91500    1.02020    0.41500   1.00
C1       0.91500    0.91500    0.52020   1.00
O1       0.91500    0.41500    0.91500   1.00
Zn1      0.94780    0.38220    0.88220   1.00
Zn1      0.88220    0.44780    0.88220   1.00
Zn1      0.88220    0.38220    0.94780   1.00
Zn1      0.94780    0.44780    0.94780   1.00
O2       0.93850    0.39150    0.82680   1.00
O2       0.93850    0.32680    0.89150   1.00
O2       1.00320    0.39150    0.89150   1.00
O2       0.89150    0.43850    0.82680   1.00
O2       0.82680    0.43850    0.89150   1.00
O2       0.89150    0.50320    0.89150   1.00
O2       0.89150    0.32680    0.93850   1.00
O2       0.82680    0.39150    0.93850   1.00
O2       0.89150    0.39150    1.00320   1.00
O2       1.00320    0.43850    0.93850   1.00
O2       0.93850    0.50320    0.93850   1.00
O2       0.93850    0.43850    1.00320   1.00
C1       0.91500    0.41500    0.80980   1.00
C1       0.91500    0.30980    0.91500   1.00
C1       1.02020    0.41500    0.91500   1.00
C1       0.80980    0.41500    0.91500   1.00
C1       0.91500    0.52020    0.91500   1.00
C1       0.91500    0.41500    1.02020   1.00
O1       0.41500    0.91500    0.91500   1.00
Zn1      0.44780    0.88220    0.88220   1.00
Zn1      0.38220    0.94780    0.88220   1.00
Zn1      0.38220    0.88220    0.94780   1.00
Zn1      0.44780    0.94780    0.94780   1.00
O2       0.43850    0.89150    0.82680   1.00
O2       0.43850    0.82680    0.89150   1.00
O2       0.50320    0.89150    0.89150   1.00
O2       0.39150    0.93850    0.82680   1.00
O2       0.32680    0.93850    0.89150   1.00
O2       0.39150    1.00320    0.89150   1.00
O2       0.39150    0.82680    0.93850   1.00
O2       0.32680    0.89150    0.93850   1.00
O2       0.39150    0.89150    1.00320   1.00
O2       0.50320    0.93850    0.93850   1.00
O2       0.43850    1.00320    0.93850   1.00
O2       0.43850    0.93850    1.00320   1.00
C1       0.41500    0.91500    0.80980   1.00
C1       0.41500    0.80980    0.91500   1.00
C1       0.52020    0.91500    0.91500   1.00
C1       0.30980    0.91500    0.91500   1.00
C1       0.41500    1.02020    0.91500   1.00
C1       0.41500    0.91500    1.02020   1.00
C4       0.74990    0.74998    0.97915   1.00
C4       0.75010    0.75002    1.02085   1.00
C3       0.73308    0.71953    0.95708   1.00
C3       0.72353    0.77312    1.04225   1.00
C3       0.76690    0.78112    0.95816   1.00
C3a      0.77668    0.72642    1.04263   1.00
C2       0.75099    0.75113    0.89483   1.00
C2       0.74882    0.74913    1.10517   1.00
C3       0.73367    0.72015    0.91566   1.00
C3       0.72294    0.77262    1.08359   1.00
C3       0.76758    0.78158    0.91680   1.00
C3       0.77553    0.72625    1.08415   1.00
H1       0.71948    0.69518    0.97192   1.00
H1       0.70290    0.79146    1.02685   1.00
H1       0.72055    0.69627    0.89968   1.00
H1       0.70205    0.79067    1.09895   1.00
H1       0.78138    0.80571    0.90179   1.00
H1       0.79586    0.70838    1.10043   1.00
C5       0.80719    0.70169    1.02239   1.00
H1       0.78067    0.80473    0.97401   1.00
H2       0.82250    0.68245    1.04354   1.00
H2       0.79266    0.68210    1.00103   1.00
N1       0.83612    0.72634    1.00292   1.00
C6       0.85920    0.75309    1.02012   1.00
C6       0.84479    0.72614    0.96460   1.00
C6       0.88266    0.77046    0.99243   1.00
C6       0.87347    0.75333    0.95711   1.00
H3       0.85891    0.75984    1.05099   1.00
H3       0.83080    0.70769    0.94309   1.00
H3       0.90409    0.79307    0.99741   1.00
H3       0.88622    0.75994    0.92903   1.00
C4       0.74998    0.97915    0.74990   1.00
C4       0.75002    1.02085    0.75010   1.00
C3       0.71953    0.95708    0.73308   1.00
C3       0.77312    1.04225    0.72353   1.00
C3       0.78112    0.95816    0.76690   1.00
C3a      0.72642    1.04263    0.77668   1.00
C2       0.75113    0.89483    0.75099   1.00
C2       0.74913    1.10517    0.74882   1.00
C3       0.72015    0.91566    0.73367   1.00
C3       0.77262    1.08359    0.72294   1.00
C3       0.78158    0.91680    0.76758   1.00
C3       0.72625    1.08415    0.77553   1.00
H1       0.69518    0.97192    0.71948   1.00
H1       0.79146    1.02685    0.70290   1.00
H1       0.69627    0.89968    0.72055   1.00
H1       0.79067    1.09895    0.70205   1.00
H1       0.80571    0.90179    0.78138   1.00
H1       0.70838    1.10043    0.79586   1.00
C5       0.70169    1.02239    0.80719   1.00
H1       0.80473    0.97401    0.78067   1.00
H2       0.68245    1.04354    0.82250   1.00
H2       0.68210    1.00103    0.79266   1.00
N1       0.72634    1.00292    0.83612   1.00
C6       0.75309    1.02012    0.85920   1.00
C6       0.72614    0.96460    0.84479   1.00
C6       0.77046    0.99243    0.88266   1.00
C6       0.75333    0.95711    0.87347   1.00
H3       0.75984    1.05099    0.85891   1.00
H3       0.70769    0.94309    0.83080   1.00
H3       0.79307    0.99741    0.90409   1.00
H3       0.75994    0.92903    0.88622   1.00
C4       0.52085    0.74990    0.75002   1.00
C4       0.47915    0.75010    0.74998   1.00
C3       0.54292    0.73308    0.78047   1.00
C3       0.45775    0.72353    0.72688   1.00
C3       0.54184    0.76690    0.71888   1.00
C3a      0.45737    0.77668    0.77358   1.00
C2       0.60517    0.75099    0.74887   1.00
C2       0.39483    0.74882    0.75087   1.00
C3       0.58434    0.73367    0.77985   1.00
C3       0.41641    0.72294    0.72738   1.00
C3       0.58320    0.76758    0.71842   1.00
C3       0.41585    0.77553    0.77375   1.00
H1       0.52808    0.71948    0.80482   1.00
H1       0.47315    0.70290    0.70854   1.00
H1       0.60032    0.72055    0.80373   1.00
H1       0.40105    0.70205    0.70933   1.00
H1       0.59821    0.78138    0.69429   1.00
H1       0.39957    0.79586    0.79162   1.00
C5       0.47761    0.80719    0.79831   1.00
H1       0.52599    0.78067    0.69527   1.00
H2       0.45646    0.82250    0.81755   1.00
H2       0.49897    0.79266    0.81790   1.00
N1       0.49708    0.83612    0.77366   1.00
C6       0.47988    0.85920    0.74691   1.00
C6       0.53540    0.84479    0.77386   1.00
C6       0.50757    0.88266    0.72954   1.00
C6       0.54289    0.87347    0.74667   1.00
H3       0.44901    0.85891    0.74016   1.00
H3       0.55691    0.83080    0.79231   1.00
H3       0.50259    0.90409    0.70693   1.00
H3       0.57097    0.88622    0.74006   1.00
C4       0.97915    0.74990    0.74998   1.00
C4       1.02085    0.75010    0.75002   1.00
C3       0.95708    0.73308    0.71953   1.00
C3       1.04225    0.72353    0.77312   1.00
C3       0.95816    0.76690    0.78112   1.00
C3a      1.04263    0.77668    0.72642   1.00
C2       0.89483    0.75099    0.75113   1.00
C2       1.10517    0.74882    0.74913   1.00
C3       0.91566    0.73367    0.72015   1.00
C3       1.08359    0.72294    0.77262   1.00
C3       0.91680    0.76758    0.78158   1.00
C3       1.08415    0.77553    0.72625   1.00
H1       0.97192    0.71948    0.69518   1.00
H1       1.02685    0.70290    0.79146   1.00
H1       0.89968    0.72055    0.69627   1.00
H1       1.09895    0.70205    0.79067   1.00
H1       0.90179    0.78138    0.80571   1.00
H1       1.10043    0.79586    0.70838   1.00
C5       1.02239    0.80719    0.70169   1.00
H1       0.97401    0.78067    0.80473   1.00
H2       1.04354    0.82250    0.68245   1.00
H2       1.00103    0.79266    0.68210   1.00
N1       1.00292    0.83612    0.72634   1.00
C6       1.02012    0.85920    0.75309   1.00
C6       0.96460    0.84479    0.72614   1.00
C6       0.99243    0.88266    0.77046   1.00
C6       0.95711    0.87347    0.75333   1.00
H3       1.05099    0.85891    0.75984   1.00
H3       0.94309    0.83080    0.70769   1.00
H3       0.99741    0.90409    0.79307   1.00
H3       0.92903    0.88622    0.75994   1.00
C4       0.75002    0.52085    0.74990   1.00
C4       0.74998    0.47915    0.75010   1.00
C3       0.78047    0.54292    0.73308   1.00
C3       0.72688    0.45775    0.72353   1.00
C3       0.71888    0.54184    0.76690   1.00
C3a      0.77358    0.45737    0.77668   1.00
C2       0.74887    0.60517    0.75099   1.00
C2       0.75087    0.39483    0.74882   1.00
C3       0.77985    0.58434    0.73367   1.00
C3       0.72738    0.41641    0.72294   1.00
C3       0.71842    0.58320    0.76758   1.00
C3       0.77375    0.41585    0.77553   1.00
H1       0.80482    0.52808    0.71948   1.00
H1       0.70854    0.47315    0.70290   1.00
H1       0.80373    0.60032    0.72055   1.00
H1       0.70933    0.40105    0.70205   1.00
H1       0.69429    0.59821    0.78138   1.00
H1       0.79162    0.39957    0.79586   1.00
C5       0.79831    0.47761    0.80719   1.00
H1       0.69527    0.52599    0.78067   1.00
H2       0.81755    0.45646    0.82250   1.00
H2       0.81790    0.49897    0.79266   1.00
N1       0.77366    0.49708    0.83612   1.00
C6       0.74691    0.47988    0.85920   1.00
C6       0.77386    0.53540    0.84479   1.00
C6       0.72954    0.50757    0.88266   1.00
C6       0.74667    0.54289    0.87347   1.00
H3       0.74016    0.44901    0.85891   1.00
H3       0.79231    0.55691    0.83080   1.00
H3       0.70693    0.50259    0.90409   1.00
H3       0.74006    0.57097    0.88622   1.00
C4       0.74990    0.75002    0.52085   1.00
C4       0.75010    0.74998    0.47915   1.00
C3       0.73308    0.78047    0.54292   1.00
C3       0.72353    0.72688    0.45775   1.00
C3       0.76690    0.71888    0.54184   1.00
C3a      0.77668    0.77358    0.45737   1.00
C2       0.75099    0.74887    0.60517   1.00
C2       0.74882    0.75087    0.39483   1.00
C3       0.73367    0.77985    0.58434   1.00
C3       0.72294    0.72738    0.41641   1.00
C3       0.76758    0.71842    0.58320   1.00
C3       0.77553    0.77375    0.41585   1.00
H1       0.71948    0.80482    0.52808   1.00
H1       0.70290    0.70854    0.47315   1.00
H1       0.72055    0.80373    0.60032   1.00
H1       0.70205    0.70933    0.40105   1.00
H1       0.78138    0.69429    0.59821   1.00
H1       0.79586    0.79162    0.39957   1.00
C5       0.80719    0.79831    0.47761   1.00
H1       0.78067    0.69527    0.52599   1.00
H2       0.82250    0.81755    0.45646   1.00
H2       0.79266    0.81790    0.49897   1.00
N1       0.83612    0.77366    0.49708   1.00
C6       0.85920    0.74691    0.47988   1.00
C6       0.84479    0.77386    0.53540   1.00
C6       0.88266    0.72954    0.50757   1.00
C6       0.87347    0.74667    0.54289   1.00
H3       0.85891    0.74016    0.44901   1.00
H3       0.83080    0.79231    0.55691   1.00
H3       0.90409    0.70693    0.50259   1.00
H3       0.88622    0.74006    0.57097   1.00
C4       0.24990    0.24998    0.97915   1.00
C4       0.25010    0.25002    1.02085   1.00
C3       0.23308    0.21953    0.95708   1.00
C3       0.22353    0.27312    1.04225   1.00
C3       0.26690    0.28112    0.95816   1.00
C3a      0.27668    0.22642    1.04263   1.00
C2       0.25099    0.25113    0.89483   1.00
C2       0.24882    0.24913    1.10517   1.00
C3       0.23367    0.22015    0.91566   1.00
C3       0.22294    0.27262    1.08359   1.00
C3       0.26758    0.28158    0.91680   1.00
C3       0.27553    0.22625    1.08415   1.00
H1       0.21948    0.19518    0.97192   1.00
H1       0.20290    0.29146    1.02685   1.00
H1       0.22055    0.19627    0.89968   1.00
H1       0.20205    0.29067    1.09895   1.00
H1       0.28138    0.30571    0.90179   1.00
H1       0.29586    0.20838    1.10043   1.00
C5       0.30719    0.20169    1.02239   1.00
H1       0.28067    0.30473    0.97401   1.00
H2       0.32250    0.18245    1.04354   1.00
H2       0.29266    0.18210    1.00103   1.00
N1       0.33612    0.22634    1.00292   1.00
C6       0.35920    0.25309    1.02012   1.00
C6       0.34479    0.22614    0.96460   1.00
C6       0.38266    0.27046    0.99243   1.00
C6       0.37347    0.25333    0.95711   1.00
H3       0.35891    0.25984    1.05099   1.00
H3       0.33080    0.20769    0.94309   1.00
H3       0.40409    0.29307    0.99741   1.00
H3       0.38622    0.25994    0.92903   1.00
C4       0.24998    0.47915    0.74990   1.00
C4       0.25002    0.52085    0.75010   1.00
C3       0.21953    0.45708    0.73308   1.00
C3       0.27312    0.54225    0.72353   1.00
C3       0.28112    0.45816    0.76690   1.00
C3a      0.22642    0.54263    0.77668   1.00
C2       0.25113    0.39483    0.75099   1.00
C2       0.24913    0.60517    0.74882   1.00
C3       0.22015    0.41566    0.73367   1.00
C3       0.27262    0.58359    0.72294   1.00
C3       0.28158    0.41680    0.76758   1.00
C3       0.22625    0.58415    0.77553   1.00
H1       0.19518    0.47192    0.71948   1.00
H1       0.29146    0.52685    0.70290   1.00
H1       0.19627    0.39968    0.72055   1.00
H1       0.29067    0.59895    0.70205   1.00
H1       0.30571    0.40179    0.78138   1.00
H1       0.20838    0.60043    0.79586   1.00
C5       0.20169    0.52239    0.80719   1.00
H1       0.30473    0.47401    0.78067   1.00
H2       0.18245    0.54354    0.82250   1.00
H2       0.18210    0.50103    0.79266   1.00
N1       0.22634    0.50292    0.83612   1.00
C6       0.25309    0.52012    0.85920   1.00
C6       0.22614    0.46460    0.84479   1.00
C6       0.27046    0.49243    0.88266   1.00
C6       0.25333    0.45711    0.87347   1.00
H3       0.25984    0.55099    0.85891   1.00
H3       0.20769    0.44309    0.83080   1.00
H3       0.29307    0.49741    0.90409   1.00
H3       0.25994    0.42903    0.88622   1.00
C4       0.02085    0.24990    0.75002   1.00
C4       -0.02085   0.25010    0.74998   1.00
C3       0.04292    0.23308    0.78047   1.00
C3       -0.04225   0.22353    0.72688   1.00
C3       0.04184    0.26690    0.71888   1.00
C3a      -0.04263   0.27668    0.77358   1.00
C2       0.10517    0.25099    0.74887   1.00
C2       -0.10517   0.24882    0.75087   1.00
C3       0.08434    0.23367    0.77985   1.00
C3       -0.08359   0.22294    0.72738   1.00
C3       0.08320    0.26758    0.71842   1.00
C3       -0.08415   0.27553    0.77375   1.00
H1       0.02808    0.21948    0.80482   1.00
H1       -0.02685   0.20290    0.70854   1.00
H1       0.10032    0.22055    0.80373   1.00
H1       -0.09895   0.20205    0.70933   1.00
H1       0.09821    0.28138    0.69429   1.00
H1       -0.10043   0.29586    0.79162   1.00
C5       -0.02239   0.30719    0.79831   1.00
H1       0.02599    0.28067    0.69527   1.00
H2       -0.04354   0.32250    0.81755   1.00
H2       -0.00103   0.29266    0.81790   1.00
N1       -0.00292   0.33612    0.77366   1.00
C6       -0.02012   0.35920    0.74691   1.00
C6       0.03540    0.34479    0.77386   1.00
C6       0.00757    0.38266    0.72954   1.00
C6       0.04289    0.37347    0.74667   1.00
H3       -0.05099   0.35891    0.74016   1.00
H3       0.05691    0.33080    0.79231   1.00
H3       0.00259    0.40409    0.70693   1.00
H3       0.07097    0.38622    0.74006   1.00
C4       0.47915    0.24990    0.74998   1.00
C4       0.52085    0.25010    0.75002   1.00
C3       0.45708    0.23308    0.71953   1.00
C3       0.54225    0.22353    0.77312   1.00
C3       0.45816    0.26690    0.78112   1.00
C3a      0.54263    0.27668    0.72642   1.00
C2       0.39483    0.25099    0.75113   1.00
C2       0.60517    0.24882    0.74913   1.00
C3       0.41566    0.23367    0.72015   1.00
C3       0.58359    0.22294    0.77262   1.00
C3       0.41680    0.26758    0.78158   1.00
C3       0.58415    0.27553    0.72625   1.00
H1       0.47192    0.21948    0.69518   1.00
H1       0.52685    0.20290    0.79146   1.00
H1       0.39968    0.22055    0.69627   1.00
H1       0.59895    0.20205    0.79067   1.00
H1       0.40179    0.28138    0.80571   1.00
H1       0.60043    0.29586    0.70838   1.00
C5       0.52239    0.30719    0.70169   1.00
H1       0.47401    0.28067    0.80473   1.00
H2       0.54354    0.32250    0.68245   1.00
H2       0.50103    0.29266    0.68210   1.00
N1       0.50292    0.33612    0.72634   1.00
C6       0.52012    0.35920    0.75309   1.00
C6       0.46460    0.34479    0.72614   1.00
C6       0.49243    0.38266    0.77046   1.00
C6       0.45711    0.37347    0.75333   1.00
H3       0.55099    0.35891    0.75984   1.00
H3       0.44309    0.33080    0.70769   1.00
H3       0.49741    0.40409    0.79307   1.00
H3       0.42903    0.38622    0.75994   1.00
C4       0.25002    0.02085    0.74990   1.00
C4       0.24998    -0.02085   0.75010   1.00
C3       0.28047    0.04292    0.73308   1.00
C3       0.22688    -0.04225   0.72353   1.00
C3       0.21888    0.04184    0.76690   1.00
C3a      0.27358    -0.04263   0.77668   1.00
C2       0.24887    0.10517    0.75099   1.00
C2       0.25087    -0.10517   0.74882   1.00
C3       0.27985    0.08434    0.73367   1.00
C3       0.22738    -0.08359   0.72294   1.00
C3       0.21842    0.08320    0.76758   1.00
C3       0.27375    -0.08415   0.77553   1.00
H1       0.30482    0.02808    0.71948   1.00
H1       0.20854    -0.02685   0.70290   1.00
H1       0.30373    0.10032    0.72055   1.00
H1       0.20933    -0.09895   0.70205   1.00
H1       0.19429    0.09821    0.78138   1.00
H1       0.29162    -0.10043   0.79586   1.00
C5       0.29831    -0.02239   0.80719   1.00
H1       0.19527    0.02599    0.78067   1.00
H2       0.31755    -0.04354   0.82250   1.00
H2       0.31790    -0.00103   0.79266   1.00
N1       0.27366    -0.00292   0.83612   1.00
C6       0.24691    -0.02012   0.85920   1.00
C6       0.27386    0.03540    0.84479   1.00
C6       0.22954    0.00757    0.88266   1.00
C6       0.24667    0.04289    0.87347   1.00
H3       0.24016    -0.05099   0.85891   1.00
H3       0.29231    0.05691    0.83080   1.00
H3       0.20693    0.00259    0.90409   1.00
H3       0.24006    0.07097    0.88622   1.00
C4       0.24990    0.25002    0.52085   1.00
C4       0.25010    0.24998    0.47915   1.00
C3       0.23308    0.28047    0.54292   1.00
C3       0.22353    0.22688    0.45775   1.00
C3       0.26690    0.21888    0.54184   1.00
C3a      0.27668    0.27358    0.45737   1.00
C2       0.25099    0.24887    0.60517   1.00
C2       0.24882    0.25087    0.39483   1.00
C3       0.23367    0.27985    0.58434   1.00
C3       0.22294    0.22738    0.41641   1.00
C3       0.26758    0.21842    0.58320   1.00
C3       0.27553    0.27375    0.41585   1.00
H1       0.21948    0.30482    0.52808   1.00
H1       0.20290    0.20854    0.47315   1.00
H1       0.22055    0.30373    0.60032   1.00
H1       0.20205    0.20933    0.40105   1.00
H1       0.28138    0.19429    0.59821   1.00
H1       0.29586    0.29162    0.39957   1.00
C5       0.30719    0.29831    0.47761   1.00
H1       0.28067    0.19527    0.52599   1.00
H2       0.32250    0.31755    0.45646   1.00
H2       0.29266    0.31790    0.49897   1.00
N1       0.33612    0.27366    0.49708   1.00
C6       0.35920    0.24691    0.47988   1.00
C6       0.34479    0.27386    0.53540   1.00
C6       0.38266    0.22954    0.50757   1.00
C6       0.37347    0.24667    0.54289   1.00
H3       0.35891    0.24016    0.44901   1.00
H3       0.33080    0.29231    0.55691   1.00
H3       0.40409    0.20693    0.50259   1.00
H3       0.38622    0.24006    0.57097   1.00
C4       0.24990    0.74998    0.47915   1.00
C4       0.25010    0.75002    0.52085   1.00
C3       0.23308    0.71953    0.45708   1.00
C3       0.22353    0.77312    0.54225   1.00
C3       0.26690    0.78112    0.45816   1.00
C3a      0.27668    0.72642    0.54263   1.00
C2       0.25099    0.75113    0.39483   1.00
C2       0.24882    0.74913    0.60517   1.00
C3       0.23367    0.72015    0.41566   1.00
C3       0.22294    0.77262    0.58359   1.00
C3       0.26758    0.78158    0.41680   1.00
C3       0.27553    0.72625    0.58415   1.00
H1       0.21948    0.69518    0.47192   1.00
H1       0.20290    0.79146    0.52685   1.00
H1       0.22055    0.69627    0.39968   1.00
H1       0.20205    0.79067    0.59895   1.00
H1       0.28138    0.80571    0.40179   1.00
H1       0.29586    0.70838    0.60043   1.00
C5       0.30719    0.70169    0.52239   1.00
H1       0.28067    0.80473    0.47401   1.00
H2       0.32250    0.68245    0.54354   1.00
H2       0.29266    0.68210    0.50103   1.00
N1       0.33612    0.72634    0.50292   1.00
C6       0.35920    0.75309    0.52012   1.00
C6       0.34479    0.72614    0.46460   1.00
C6       0.38266    0.77046    0.49243   1.00
C6       0.37347    0.75333    0.45711   1.00
H3       0.35891    0.75984    0.55099   1.00
H3       0.33080    0.70769    0.44309   1.00
H3       0.40409    0.79307    0.49741   1.00
H3       0.38622    0.75994    0.42903   1.00
C4       0.24998    0.97915    0.24990   1.00
C4       0.25002    1.02085    0.25010   1.00
C3       0.21953    0.95708    0.23308   1.00
C3       0.27312    1.04225    0.22353   1.00
C3       0.28112    0.95816    0.26690   1.00
C3a      0.22642    1.04263    0.27668   1.00
C2       0.25113    0.89483    0.25099   1.00
C2       0.24913    1.10517    0.24882   1.00
C3       0.22015    0.91566    0.23367   1.00
C3       0.27262    1.08359    0.22294   1.00
C3       0.28158    0.91680    0.26758   1.00
C3       0.22625    1.08415    0.27553   1.00
H1       0.19518    0.97192    0.21948   1.00
H1       0.29146    1.02685    0.20290   1.00
H1       0.19627    0.89968    0.22055   1.00
H1       0.29067    1.09895    0.20205   1.00
H1       0.30571    0.90179    0.28138   1.00
H1       0.20838    1.10043    0.29586   1.00
C5       0.20169    1.02239    0.30719   1.00
H1       0.30473    0.97401    0.28067   1.00
H2       0.18245    1.04354    0.32250   1.00
H2       0.18210    1.00103    0.29266   1.00
N1       0.22634    1.00292    0.33612   1.00
C6       0.25309    1.02012    0.35920   1.00
C6       0.22614    0.96460    0.34479   1.00
C6       0.27046    0.99243    0.38266   1.00
C6       0.25333    0.95711    0.37347   1.00
H3       0.25984    1.05099    0.35891   1.00
H3       0.20769    0.94309    0.33080   1.00
H3       0.29307    0.99741    0.40409   1.00
H3       0.25994    0.92903    0.38622   1.00
C4       0.02085    0.74990    0.25002   1.00
C4       -0.02085   0.75010    0.24998   1.00
C3       0.04292    0.73308    0.28047   1.00
C3       -0.04225   0.72353    0.22688   1.00
C3       0.04184    0.76690    0.21888   1.00
C3a      -0.04263   0.77668    0.27358   1.00
C2       0.10517    0.75099    0.24887   1.00
C2       -0.10517   0.74882    0.25087   1.00
C3       0.08434    0.73367    0.27985   1.00
C3       -0.08359   0.72294    0.22738   1.00
C3       0.08320    0.76758    0.21842   1.00
C3       -0.08415   0.77553    0.27375   1.00
H1       0.02808    0.71948    0.30482   1.00
H1       -0.02685   0.70290    0.20854   1.00
H1       0.10032    0.72055    0.30373   1.00
H1       -0.09895   0.70205    0.20933   1.00
H1       0.09821    0.78138    0.19429   1.00
H1       -0.10043   0.79586    0.29162   1.00
C5       -0.02239   0.80719    0.29831   1.00
H1       0.02599    0.78067    0.19527   1.00
H2       -0.04354   0.82250    0.31755   1.00
H2       -0.00103   0.79266    0.31790   1.00
N1       -0.00292   0.83612    0.27366   1.00
C6       -0.02012   0.85920    0.24691   1.00
C6       0.03540    0.84479    0.27386   1.00
C6       0.00757    0.88266    0.22954   1.00
C6       0.04289    0.87347    0.24667   1.00
H3       -0.05099   0.85891    0.24016   1.00
H3       0.05691    0.83080    0.29231   1.00
H3       0.00259    0.90409    0.20693   1.00
H3       0.07097    0.88622    0.24006   1.00
C4       0.47915    0.74990    0.24998   1.00
C4       0.52085    0.75010    0.25002   1.00
C3       0.45708    0.73308    0.21953   1.00
C3       0.54225    0.72353    0.27312   1.00
C3       0.45816    0.76690    0.28112   1.00
C3a      0.54263    0.77668    0.22642   1.00
C2       0.39483    0.75099    0.25113   1.00
C2       0.60517    0.74882    0.24913   1.00
C3       0.41566    0.73367    0.22015   1.00
C3       0.58359    0.72294    0.27262   1.00
C3       0.41680    0.76758    0.28158   1.00
C3       0.58415    0.77553    0.22625   1.00
H1       0.47192    0.71948    0.19518   1.00
H1       0.52685    0.70290    0.29146   1.00
H1       0.39968    0.72055    0.19627   1.00
H1       0.59895    0.70205    0.29067   1.00
H1       0.40179    0.78138    0.30571   1.00
H1       0.60043    0.79586    0.20838   1.00
C5       0.52239    0.80719    0.20169   1.00
H1       0.47401    0.78067    0.30473   1.00
H2       0.54354    0.82250    0.18245   1.00
H2       0.50103    0.79266    0.18210   1.00
N1       0.50292    0.83612    0.22634   1.00
C6       0.52012    0.85920    0.25309   1.00
C6       0.46460    0.84479    0.22614   1.00
C6       0.49243    0.88266    0.27046   1.00
C6       0.45711    0.87347    0.25333   1.00
H3       0.55099    0.85891    0.25984   1.00
H3       0.44309    0.83080    0.20769   1.00
H3       0.49741    0.90409    0.29307   1.00
H3       0.42903    0.88622    0.25994   1.00
C4       0.25002    0.52085    0.24990   1.00
C4       0.24998    0.47915    0.25010   1.00
C3       0.28047    0.54292    0.23308   1.00
C3       0.22688    0.45775    0.22353   1.00
C3       0.21888    0.54184    0.26690   1.00
C3a      0.27358    0.45737    0.27668   1.00
C2       0.24887    0.60517    0.25099   1.00
C2       0.25087    0.39483    0.24882   1.00
C3       0.27985    0.58434    0.23367   1.00
C3       0.22738    0.41641    0.22294   1.00
C3       0.21842    0.58320    0.26758   1.00
C3       0.27375    0.41585    0.27553   1.00
H1       0.30482    0.52808    0.21948   1.00
H1       0.20854    0.47315    0.20290   1.00
H1       0.30373    0.60032    0.22055   1.00
H1       0.20933    0.40105    0.20205   1.00
H1       0.19429    0.59821    0.28138   1.00
H1       0.29162    0.39957    0.29586   1.00
C5       0.29831    0.47761    0.30719   1.00
H1       0.19527    0.52599    0.28067   1.00
H2       0.31755    0.45646    0.32250   1.00
H2       0.31790    0.49897    0.29266   1.00
N1       0.27366    0.49708    0.33612   1.00
C6       0.24691    0.47988    0.35920   1.00
C6       0.27386    0.53540    0.34479   1.00
C6       0.22954    0.50757    0.38266   1.00
C6       0.24667    0.54289    0.37347   1.00
H3       0.24016    0.44901    0.35891   1.00
H3       0.29231    0.55691    0.33080   1.00
H3       0.20693    0.50259    0.40409   1.00
H3       0.24006    0.57097    0.38622   1.00
C4       0.24990    0.75002    0.02085   1.00
C4       0.25010    0.74998    -0.02085   1.00
C3       0.23308    0.78047    0.04292   1.00
C3       0.22353    0.72688    -0.04225   1.00
C3       0.26690    0.71888    0.04184   1.00
C3a      0.27668    0.77358    -0.04263   1.00
C2       0.25099    0.74887    0.10517   1.00
C2       0.24882    0.75087    -0.10517   1.00
C3       0.23367    0.77985    0.08434   1.00
C3       0.22294    0.72738    -0.08359   1.00
C3       0.26758    0.71842    0.08320   1.00
C3       0.27553    0.77375    -0.08415   1.00
H1       0.21948    0.80482    0.02808   1.00
H1       0.20290    0.70854    -0.02685   1.00
H1       0.22055    0.80373    0.10032   1.00
H1       0.20205    0.70933    -0.09895   1.00
H1       0.28138    0.69429    0.09821   1.00
H1       0.29586    0.79162    -0.10043   1.00
C5       0.30719    0.79831    -0.02239   1.00
H1       0.28067    0.69527    0.02599   1.00
H2       0.32250    0.81755    -0.04354   1.00
H2       0.29266    0.81790    -0.00103   1.00
N1       0.33612    0.77366    -0.00292   1.00
C6       0.35920    0.74691    -0.02012   1.00
C6       0.34479    0.77386    0.03540   1.00
C6       0.38266    0.72954    0.00757   1.00
C6       0.37347    0.74667    0.04289   1.00
H3       0.35891    0.74016    -0.05099   1.00
H3       0.33080    0.79231    0.05691   1.00
H3       0.40409    0.70693    0.00259   1.00
H3       0.38622    0.74006    0.07097   1.00
C4       0.74990    0.24998    0.47915   1.00
C4       0.75010    0.25002    0.52085   1.00
C3       0.73308    0.21953    0.45708   1.00
C3       0.72353    0.27312    0.54225   1.00
C3       0.76690    0.28112    0.45816   1.00
C3a      0.77668    0.22642    0.54263   1.00
C2       0.75099    0.25113    0.39483   1.00
C2       0.74882    0.24913    0.60517   1.00
C3       0.73367    0.22015    0.41566   1.00
C3       0.72294    0.27262    0.58359   1.00
C3       0.76758    0.28158    0.41680   1.00
C3       0.77553    0.22625    0.58415   1.00
H1       0.71948    0.19518    0.47192   1.00
H1       0.70290    0.29146    0.52685   1.00
H1       0.72055    0.19627    0.39968   1.00
H1       0.70205    0.29067    0.59895   1.00
H1       0.78138    0.30571    0.40179   1.00
H1       0.79586    0.20838    0.60043   1.00
C5       0.80719    0.20169    0.52239   1.00
H1       0.78067    0.30473    0.47401   1.00
H2       0.82250    0.18245    0.54354   1.00
H2       0.79266    0.18210    0.50103   1.00
N1       0.83612    0.22634    0.50292   1.00
C6       0.85920    0.25309    0.52012   1.00
C6       0.84479    0.22614    0.46460   1.00
C6       0.88266    0.27046    0.49243   1.00
C6       0.87347    0.25333    0.45711   1.00
H3       0.85891    0.25984    0.55099   1.00
H3       0.83080    0.20769    0.44309   1.00
H3       0.90409    0.29307    0.49741   1.00
H3       0.88622    0.25994    0.42903   1.00
C4       0.74998    0.47915    0.24990   1.00
C4       0.75002    0.52085    0.25010   1.00
C3       0.71953    0.45708    0.23308   1.00
C3       0.77312    0.54225    0.22353   1.00
C3       0.78112    0.45816    0.26690   1.00
C3a      0.72642    0.54263    0.27668   1.00
C2       0.75113    0.39483    0.25099   1.00
C2       0.74913    0.60517    0.24882   1.00
C3       0.72015    0.41566    0.23367   1.00
C3       0.77262    0.58359    0.22294   1.00
C3       0.78158    0.41680    0.26758   1.00
C3       0.72625    0.58415    0.27553   1.00
H1       0.69518    0.47192    0.21948   1.00
H1       0.79146    0.52685    0.20290   1.00
H1       0.69627    0.39968    0.22055   1.00
H1       0.79067    0.59895    0.20205   1.00
H1       0.80571    0.40179    0.28138   1.00
H1       0.70838    0.60043    0.29586   1.00
C5       0.70169    0.52239    0.30719   1.00
H1       0.80473    0.47401    0.28067   1.00
H2       0.68245    0.54354    0.32250   1.00
H2       0.68210    0.50103    0.29266   1.00
N1       0.72634    0.50292    0.33612   1.00
C6       0.75309    0.52012    0.35920   1.00
C6       0.72614    0.46460    0.34479   1.00
C6       0.77046    0.49243    0.38266   1.00
C6       0.75333    0.45711    0.37347   1.00
H3       0.75984    0.55099    0.35891   1.00
H3       0.70769    0.44309    0.33080   1.00
H3       0.79307    0.49741    0.40409   1.00
H3       0.75994    0.42903    0.38622   1.00
C4       0.52085    0.24990    0.25002   1.00
C4       0.47915    0.25010    0.24998   1.00
C3       0.54292    0.23308    0.28047   1.00
C3       0.45775    0.22353    0.22688   1.00
C3       0.54184    0.26690    0.21888   1.00
C3a      0.45737    0.27668    0.27358   1.00
C2       0.60517    0.25099    0.24887   1.00
C2       0.39483    0.24882    0.25087   1.00
C3       0.58434    0.23367    0.27985   1.00
C3       0.41641    0.22294    0.22738   1.00
C3       0.58320    0.26758    0.21842   1.00
C3       0.41585    0.27553    0.27375   1.00
H1       0.52808    0.21948    0.30482   1.00
H1       0.47315    0.20290    0.20854   1.00
H1       0.60032    0.22055    0.30373   1.00
H1       0.40105    0.20205    0.20933   1.00
H1       0.59821    0.28138    0.19429   1.00
H1       0.39957    0.29586    0.29162   1.00
C5       0.47761    0.30719    0.29831   1.00
H1       0.52599    0.28067    0.19527   1.00
H2       0.45646    0.32250    0.31755   1.00
H2       0.49897    0.29266    0.31790   1.00
N1       0.49708    0.33612    0.27366   1.00
C6       0.47988    0.35920    0.24691   1.00
C6       0.53540    0.34479    0.27386   1.00
C6       0.50757    0.38266    0.22954   1.00
C6       0.54289    0.37347    0.24667   1.00
H3       0.44901    0.35891    0.24016   1.00
H3       0.55691    0.33080    0.29231   1.00
H3       0.50259    0.40409    0.20693   1.00
H3       0.57097    0.38622    0.24006   1.00
C4       0.97915    0.24990    0.24998   1.00
C4       1.02085    0.25010    0.25002   1.00
C3       0.95708    0.23308    0.21953   1.00
C3       1.04225    0.22353    0.27312   1.00
C3       0.95816    0.26690    0.28112   1.00
C3a      1.04263    0.27668    0.22642   1.00
C2       0.89483    0.25099    0.25113   1.00
C2       1.10517    0.24882    0.24913   1.00
C3       0.91566    0.23367    0.22015   1.00
C3       1.08359    0.22294    0.27262   1.00
C3       0.91680    0.26758    0.28158   1.00
C3       1.08415    0.27553    0.22625   1.00
H1       0.97192    0.21948    0.19518   1.00
H1       1.02685    0.20290    0.29146   1.00
H1       0.89968    0.22055    0.19627   1.00
H1       1.09895    0.20205    0.29067   1.00
H1       0.90179    0.28138    0.30571   1.00
H1       1.10043    0.29586    0.20838   1.00
C5       1.02239    0.30719    0.20169   1.00
H1       0.97401    0.28067    0.30473   1.00
H2       1.04354    0.32250    0.18245   1.00
H2       1.00103    0.29266    0.18210   1.00
N1       1.00292    0.33612    0.22634   1.00
C6       1.02012    0.35920    0.25309   1.00
C6       0.96460    0.34479    0.22614   1.00
C6       0.99243    0.38266    0.27046   1.00
C6       0.95711    0.37347    0.25333   1.00
H3       1.05099    0.35891    0.25984   1.00
H3       0.94309    0.33080    0.20769   1.00
H3       0.99741    0.40409    0.29307   1.00
H3       0.92903    0.38622    0.25994   1.00
C4       0.75002    0.02085    0.24990   1.00
C4       0.74998    -0.02085   0.25010   1.00
C3       0.78047    0.04292    0.23308   1.00
C3       0.72688    -0.04225   0.22353   1.00
C3       0.71888    0.04184    0.26690   1.00
C3a      0.77358    -0.04263   0.27668   1.00
C2       0.74887    0.10517    0.25099   1.00
C2       0.75087    -0.10517   0.24882   1.00
C3       0.77985    0.08434    0.23367   1.00
C3       0.72738    -0.08359   0.22294   1.00
C3       0.71842    0.08320    0.26758   1.00
C3       0.77375    -0.08415   0.27553   1.00
H1       0.80482    0.02808    0.21948   1.00
H1       0.70854    -0.02685   0.20290   1.00
H1       0.80373    0.10032    0.22055   1.00
H1       0.70933    -0.09895   0.20205   1.00
H1       0.69429    0.09821    0.28138   1.00
H1       0.79162    -0.10043   0.29586   1.00
C5       0.79831    -0.02239   0.30719   1.00
H1       0.69527    0.02599    0.28067   1.00
H2       0.81755    -0.04354   0.32250   1.00
H2       0.81790    -0.00103   0.29266   1.00
N1       0.77366    -0.00292   0.33612   1.00
C6       0.74691    -0.02012   0.35920   1.00
C6       0.77386    0.03540    0.34479   1.00
C6       0.72954    0.00757    0.38266   1.00
C6       0.74667    0.04289    0.37347   1.00
H3       0.74016    -0.05099   0.35891   1.00
H3       0.79231    0.05691    0.33080   1.00
H3       0.70693    0.00259    0.40409   1.00
H3       0.74006    0.07097    0.38622   1.00
C4       0.74990    0.25002    0.02085   1.00
C4       0.75010    0.24998    -0.02085   1.00
C3       0.73308    0.28047    0.04292   1.00
C3       0.72353    0.22688    -0.04225   1.00
C3       0.76690    0.21888    0.04184   1.00
C3a      0.77668    0.27358    -0.04263   1.00
C2       0.75099    0.24887    0.10517   1.00
C2       0.74882    0.25087    -0.10517   1.00
C3       0.73367    0.27985    0.08434   1.00
C3       0.72294    0.22738    -0.08359   1.00
C3       0.76758    0.21842    0.08320   1.00
C3       0.77553    0.27375    -0.08415   1.00
H1       0.71948    0.30482    0.02808   1.00
H1       0.70290    0.20854    -0.02685   1.00
H1       0.72055    0.30373    0.10032   1.00
H1       0.70205    0.20933    -0.09895   1.00
H1       0.78138    0.19429    0.09821   1.00
H1       0.79586    0.29162    -0.10043   1.00
C5       0.80719    0.29831    -0.02239   1.00
H1       0.78067    0.19527    0.02599   1.00
H2       0.82250    0.31755    -0.04354   1.00
H2       0.79266    0.31790    -0.00103   1.00
N1       0.83612    0.27366    -0.00292   1.00
C6       0.85920    0.24691    -0.02012   1.00
C6       0.84479    0.27386    0.03540   1.00
C6       0.88266    0.22954    0.00757   1.00
C6       0.87347    0.24667    0.04289   1.00
H3       0.85891    0.24016    -0.05099   1.00
H3       0.83080    0.29231    0.05691   1.00
H3       0.90409    0.20693    0.00259   1.00
H3       0.88622    0.24006    0.07097   1.00
C4       0.91490    0.91498    1.14415   1.00
C4       0.91510    0.91502    1.18585   1.00
C3       0.89808    0.88453    1.12208   1.00
C3       0.88853    0.93812    1.20725   1.00
C3       0.93190    0.94612    1.12316   1.00
C3a      0.94168    0.89142    1.20763   1.00
C2       0.91599    0.91613    1.05983   1.00
C2       0.91382    0.91413    1.27017   1.00
C3       0.89867    0.88515    1.08066   1.00
C3       0.88794    0.93762    1.24859   1.00
C3       0.93258    0.94658    1.08180   1.00
C3       0.94053    0.89125    1.24915   1.00
H1       0.88448    0.86018    1.13692   1.00
H1       0.86790    0.95646    1.19185   1.00
H1       0.88555    0.86127    1.06468   1.00
H1       0.86705    0.95567    1.26395   1.00
H1       0.94638    0.97071    1.06679   1.00
H1       0.96086    0.87338    1.26543   1.00
C5       0.97219    0.86669    1.18739   1.00
H1       0.94567    0.96973    1.13901   1.00
H2       0.98750    0.84745    1.20854   1.00
H2       0.95766    0.84710    1.16603   1.00
N1       1.00112    0.89134    1.16792   1.00
C6       1.02420    0.91809    1.18512   1.00
C6       1.00979    0.89114    1.12960   1.00
C6       1.04766    0.93546    1.15743   1.00
C6       1.03847    0.91833    1.12211   1.00
H3       1.02391    0.92484    1.21599   1.00
H3       0.99580    0.87269    1.10809   1.00
H3       1.06909    0.95807    1.16241   1.00
H3       1.05122    0.92494    1.09403   1.00
C4       0.91498    1.14415    0.91490   1.00
C4       0.91502    1.18585    0.91510   1.00
C3       0.88453    1.12208    0.89808   1.00
C3       0.93812    1.20725    0.88853   1.00
C3       0.94612    1.12316    0.93190   1.00
C3a      0.89142    1.20763    0.94168   1.00
C2       0.91613    1.05983    0.91599   1.00
C2       0.91413    1.27017    0.91382   1.00
C3       0.88515    1.08066    0.89867   1.00
C3       0.93762    1.24859    0.88794   1.00
C3       0.94658    1.08180    0.93258   1.00
C3       0.89125    1.24915    0.94053   1.00
H1       0.86018    1.13692    0.88448   1.00
H1       0.95646    1.19185    0.86790   1.00
H1       0.86127    1.06468    0.88555   1.00
H1       0.95567    1.26395    0.86705   1.00
H1       0.97071    1.06679    0.94638   1.00
H1       0.87338    1.26543    0.96086   1.00
C5       0.86669    1.18739    0.97219   1.00
H1       0.96973    1.13901    0.94567   1.00
H2       0.84745    1.20854    0.98750   1.00
H2       0.84710    1.16603    0.95766   1.00
N1       0.89134    1.16792    1.00112   1.00
C6       0.91809    1.18512    1.02420   1.00
C6       0.89114    1.12960    1.00979   1.00
C6       0.93546    1.15743    1.04766   1.00
C6       0.91833    1.12211    1.03847   1.00
H3       0.92484    1.21599    1.02391   1.00
H3       0.87269    1.10809    0.99580   1.00
H3       0.95807    1.16241    1.06909   1.00
H3       0.92494    1.09403    1.05122   1.00
C4       0.68585    0.91490    0.91502   1.00
C4       0.64415    0.91510    0.91498   1.00
C3       0.70792    0.89808    0.94547   1.00
C3       0.62275    0.88853    0.89188   1.00
C3       0.70684    0.93190    0.88388   1.00
C3a      0.62237    0.94168    0.93858   1.00
C2       0.77017    0.91599    0.91387   1.00
C2       0.55983    0.91382    0.91587   1.00
C3       0.74934    0.89867    0.94485   1.00
C3       0.58141    0.88794    0.89238   1.00
C3       0.74820    0.93258    0.88342   1.00
C3       0.58085    0.94053    0.93875   1.00
H1       0.69308    0.88448    0.96982   1.00
H1       0.63815    0.86790    0.87354   1.00
H1       0.76532    0.88555    0.96873   1.00
H1       0.56605    0.86705    0.87433   1.00
H1       0.76321    0.94638    0.85929   1.00
H1       0.56457    0.96086    0.95662   1.00
C5       0.64261    0.97219    0.96331   1.00
H1       0.69099    0.94567    0.86027   1.00
H2       0.62146    0.98750    0.98255   1.00
H2       0.66397    0.95766    0.98290   1.00
N1       0.66208    1.00112    0.93866   1.00
C6       0.64488    1.02420    0.91191   1.00
C6       0.70040    1.00979    0.93886   1.00
C6       0.67257    1.04766    0.89454   1.00
C6       0.70789    1.03847    0.91167   1.00
H3       0.61401    1.02391    0.90516   1.00
H3       0.72191    0.99580    0.95731   1.00
H3       0.66759    1.06909    0.87193   1.00
H3       0.73597    1.05122    0.90506   1.00
C4       1.14415    0.91490    0.91498   1.00
C4       1.18585    0.91510    0.91502   1.00
C3       1.12208    0.89808    0.88453   1.00
C3       1.20725    0.88853    0.93812   1.00
C3       1.12316    0.93190    0.94612   1.00
C3a      1.20763    0.94168    0.89142   1.00
C2       1.05983    0.91599    0.91613   1.00
C2       1.27017    0.91382    0.91413   1.00
C3       1.08066    0.89867    0.88515   1.00
C3       1.24859    0.88794    0.93762   1.00
C3       1.08180    0.93258    0.94658   1.00
C3       1.24915    0.94053    0.89125   1.00
H1       1.13692    0.88448    0.86018   1.00
H1       1.19185    0.86790    0.95646   1.00
H1       1.06468    0.88555    0.86127   1.00
H1       1.26395    0.86705    0.95567   1.00
H1       1.06679    0.94638    0.97071   1.00
H1       1.26543    0.96086    0.87338   1.00
C5       1.18739    0.97219    0.86669   1.00
H1       1.13901    0.94567    0.96973   1.00
H2       1.20854    0.98750    0.84745   1.00
H2       1.16603    0.95766    0.84710   1.00
N1       1.16792    1.00112    0.89134   1.00
C6       1.18512    1.02420    0.91809   1.00
C6       1.12960    1.00979    0.89114   1.00
C6       1.15743    1.04766    0.93546   1.00
C6       1.12211    1.03847    0.91833   1.00
H3       1.21599    1.02391    0.92484   1.00
H3       1.10809    0.99580    0.87269   1.00
H3       1.16241    1.06909    0.95807   1.00
H3       1.09403    1.05122    0.92494   1.00
C4       0.91502    0.68585    0.91490   1.00
C4       0.91498    0.64415    0.91510   1.00
C3       0.94547    0.70792    0.89808   1.00
C3       0.89188    0.62275    0.88853   1.00
C3       0.88388    0.70684    0.93190   1.00
C3a      0.93858    0.62237    0.94168   1.00
C2       0.91387    0.77017    0.91599   1.00
C2       0.91587    0.55983    0.91382   1.00
C3       0.94485    0.74934    0.89867   1.00
C3       0.89238    0.58141    0.88794   1.00
C3       0.88342    0.74820    0.93258   1.00
C3       0.93875    0.58085    0.94053   1.00
H1       0.96982    0.69308    0.88448   1.00
H1       0.87354    0.63815    0.86790   1.00
H1       0.96873    0.76532    0.88555   1.00
H1       0.87433    0.56605    0.86705   1.00
H1       0.85929    0.76321    0.94638   1.00
H1       0.95662    0.56457    0.96086   1.00
C5       0.96331    0.64261    0.97219   1.00
H1       0.86027    0.69099    0.94567   1.00
H2       0.98255    0.62146    0.98750   1.00
H2       0.98290    0.66397    0.95766   1.00
N1       0.93866    0.66208    1.00112   1.00
C6       0.91191    0.64488    1.02420   1.00
C6       0.93886    0.70040    1.00979   1.00
C6       0.89454    0.67257    1.04766   1.00
C6       0.91167    0.70789    1.03847   1.00
H3       0.90516    0.61401    1.02391   1.00
H3       0.95731    0.72191    0.99580   1.00
H3       0.87193    0.66759    1.06909   1.00
H3       0.90506    0.73597    1.05122   1.00
C4       0.91490    0.91502    0.68585   1.00
C4       0.91510    0.91498    0.64415   1.00
C3       0.89808    0.94547    0.70792   1.00
C3       0.88853    0.89188    0.62275   1.00
C3       0.93190    0.88388    0.70684   1.00
C3a      0.94168    0.93858    0.62237   1.00
C2       0.91599    0.91387    0.77017   1.00
C2       0.91382    0.91587    0.55983   1.00
C3       0.89867    0.94485    0.74934   1.00
C3       0.88794    0.89238    0.58141   1.00
C3       0.93258    0.88342    0.74820   1.00
C3       0.94053    0.93875    0.58085   1.00
H1       0.88448    0.96982    0.69308   1.00
H1       0.86790    0.87354    0.63815   1.00
H1       0.88555    0.96873    0.76532   1.00
H1       0.86705    0.87433    0.56605   1.00
H1       0.94638    0.85929    0.76321   1.00
H1       0.96086    0.95662    0.56457   1.00
C5       0.97219    0.96331    0.64261   1.00
H1       0.94567    0.86027    0.69099   1.00
H2       0.98750    0.98255    0.62146   1.00
H2       0.95766    0.98290    0.66397   1.00
N1       1.00112    0.93866    0.66208   1.00
C6       1.02420    0.91191    0.64488   1.00
C6       1.00979    0.93886    0.70040   1.00
C6       1.04766    0.89454    0.67257   1.00
C6       1.03847    0.91167    0.70789   1.00
H3       1.02391    0.90516    0.61401   1.00
H3       0.99580    0.95731    0.72191   1.00
H3       1.06909    0.87193    0.66759   1.00
H3       1.05122    0.90506    0.73597   1.00
C4       0.41490    0.41498    1.14415   1.00
C4       0.41510    0.41502    1.18585   1.00
C3       0.39808    0.38453    1.12208   1.00
C3       0.38853    0.43812    1.20725   1.00
C3       0.43190    0.44612    1.12316   1.00
C3a      0.44168    0.39142    1.20763   1.00
C2       0.41599    0.41613    1.05983   1.00
C2       0.41382    0.41413    1.27017   1.00
C3       0.39867    0.38515    1.08066   1.00
C3       0.38794    0.43762    1.24859   1.00
C3       0.43258    0.44658    1.08180   1.00
C3       0.44053    0.39125    1.24915   1.00
H1       0.38448    0.36018    1.13692   1.00
H1       0.36790    0.45646    1.19185   1.00
H1       0.38555    0.36127    1.06468   1.00
H1       0.36705    0.45567    1.26395   1.00
H1       0.44638    0.47071    1.06679   1.00
H1       0.46086    0.37338    1.26543   1.00
C5       0.47219    0.36669    1.18739   1.00
H1       0.44567    0.46973    1.13901   1.00
H2       0.48750    0.34745    1.20854   1.00
H2       0.45766    0.34710    1.16603   1.00
N1       0.50112    0.39134    1.16792   1.00
C6       0.52420    0.41809    1.18512   1.00
C6       0.50979    0.39114    1.12960   1.00
C6       0.54766    0.43546    1.15743   1.00
C6       0.53847    0.41833    1.12211   1.00
H3       0.52391    0.42484    1.21599   1.00
H3       0.49580    0.37269    1.10809   1.00
H3       0.56909    0.45807    1.16241   1.00
H3       0.55122    0.42494    1.09403   1.00
C4       0.41498    0.64415    0.91490   1.00
C4       0.41502    0.68585    0.91510   1.00
C3       0.38453    0.62208    0.89808   1.00
C3       0.43812    0.70725    0.88853   1.00
C3       0.44612    0.62316    0.93190   1.00
C3a      0.39142    0.70763    0.94168   1.00
C2       0.41613    0.55983    0.91599   1.00
C2       0.41413    0.77017    0.91382   1.00
C3       0.38515    0.58066    0.89867   1.00
C3       0.43762    0.74859    0.88794   1.00
C3       0.44658    0.58180    0.93258   1.00
C3       0.39125    0.74915    0.94053   1.00
H1       0.36018    0.63692    0.88448   1.00
H1       0.45646    0.69185    0.86790   1.00
H1       0.36127    0.56468    0.88555   1.00
H1       0.45567    0.76395    0.86705   1.00
H1       0.47071    0.56679    0.94638   1.00
H1       0.37338    0.76543    0.96086   1.00
C5       0.36669    0.68739    0.97219   1.00
H1       0.46973    0.63901    0.94567   1.00
H2       0.34745    0.70854    0.98750   1.00
H2       0.34710    0.66603    0.95766   1.00
N1       0.39134    0.66792    1.00112   1.00
C6       0.41809    0.68512    1.02420   1.00
C6       0.39114    0.62960    1.00979   1.00
C6       0.43546    0.65743    1.04766   1.00
C6       0.41833    0.62211    1.03847   1.00
H3       0.42484    0.71599    1.02391   1.00
H3       0.37269    0.60809    0.99580   1.00
H3       0.45807    0.66241    1.06909   1.00
H3       0.42494    0.59403    1.05122   1.00
C4       0.18585    0.41490    0.91502   1.00
C4       0.14415    0.41510    0.91498   1.00
C3       0.20792    0.39808    0.94547   1.00
C3       0.12275    0.38853    0.89188   1.00
C3       0.20684    0.43190    0.88388   1.00
C3a      0.12237    0.44168    0.93858   1.00
C2       0.27017    0.41599    0.91387   1.00
C2       0.05983    0.41382    0.91587   1.00
C3       0.24934    0.39867    0.94485   1.00
C3       0.08141    0.38794    0.89238   1.00
C3       0.24820    0.43258    0.88342   1.00
C3       0.08085    0.44053    0.93875   1.00
H1       0.19308    0.38448    0.96982   1.00
H1       0.13815    0.36790    0.87354   1.00
H1       0.26532    0.38555    0.96873   1.00
H1       0.06605    0.36705    0.87433   1.00
H1       0.26321    0.44638    0.85929   1.00
H1       0.06457    0.46086    0.95662   1.00
C5       0.14261    0.47219    0.96331   1.00
H1       0.19099    0.44567    0.86027   1.00
H2       0.12146    0.48750    0.98255   1.00
H2       0.16397    0.45766    0.98290   1.00
N1       0.16208    0.50112    0.93866   1.00
C6       0.14488    0.52420    0.91191   1.00
C6       0.20040    0.50979    0.93886   1.00
C6       0.17257    0.54766    0.89454   1.00
C6       0.20789    0.53847    0.91167   1.00
H3       0.11401    0.52391    0.90516   1.00
H3       0.22191    0.49580    0.95731   1.00
H3       0.16759    0.56909    0.87193   1.00
H3       0.23597    0.55122    0.90506   1.00
C4       0.64415    0.41490    0.91498   1.00
C4       0.68585    0.41510    0.91502   1.00
C3       0.62208    0.39808    0.88453   1.00
C3       0.70725    0.38853    0.93812   1.00
C3       0.62316    0.43190    0.94612   1.00
C3a      0.70763    0.44168    0.89142   1.00
C2       0.55983    0.41599    0.91613   1.00
C2       0.77017    0.41382    0.91413   1.00
C3       0.58066    0.39867    0.88515   1.00
C3       0.74859    0.38794    0.93762   1.00
C3       0.58180    0.43258    0.94658   1.00
C3       0.74915    0.44053    0.89125   1.00
H1       0.63692    0.38448    0.86018   1.00
H1       0.69185    0.36790    0.95646   1.00
H1       0.56468    0.38555    0.86127   1.00
H1       0.76395    0.36705    0.95567   1.00
H1       0.56679    0.44638    0.97071   1.00
H1       0.76543    0.46086    0.87338   1.00
C5       0.68739    0.47219    0.86669   1.00
H1       0.63901    0.44567    0.96973   1.00
H2       0.70854    0.48750    0.84745   1.00
H2       0.66603    0.45766    0.84710   1.00
N1       0.66792    0.50112    0.89134   1.00
C6       0.68512    0.52420    0.91809   1.00
C6       0.62960    0.50979    0.89114   1.00
C6       0.65743    0.54766    0.93546   1.00
C6       0.62211    0.53847    0.91833   1.00
H3       0.71599    0.52391    0.92484   1.00
H3       0.60809    0.49580    0.87269   1.00
H3       0.66241    0.56909    0.95807   1.00
H3       0.59403    0.55122    0.92494   1.00
C4       0.41502    0.18585    0.91490   1.00
C4       0.41498    0.14415    0.91510   1.00
C3       0.44547    0.20792    0.89808   1.00
C3       0.39188    0.12275    0.88853   1.00
C3       0.38388    0.20684    0.93190   1.00
C3a      0.43858    0.12237    0.94168   1.00
C2       0.41387    0.27017    0.91599   1.00
C2       0.41587    0.05983    0.91382   1.00
C3       0.44485    0.24934    0.89867   1.00
C3       0.39238    0.08141    0.88794   1.00
C3       0.38342    0.24820    0.93258   1.00
C3       0.43875    0.08085    0.94053   1.00
H1       0.46982    0.19308    0.88448   1.00
H1       0.37354    0.13815    0.86790   1.00
H1       0.46873    0.26532    0.88555   1.00
H1       0.37433    0.06605    0.86705   1.00
H1       0.35929    0.26321    0.94638   1.00
H1       0.45662    0.06457    0.96086   1.00
C5       0.46331    0.14261    0.97219   1.00
H1       0.36027    0.19099    0.94567   1.00
H2       0.48255    0.12146    0.98750   1.00
H2       0.48290    0.16397    0.95766   1.00
N1       0.43866    0.16208    1.00112   1.00
C6       0.41191    0.14488    1.02420   1.00
C6       0.43886    0.20040    1.00979   1.00
C6       0.39454    0.17257    1.04766   1.00
C6       0.41167    0.20789    1.03847   1.00
H3       0.40516    0.11401    1.02391   1.00
H3       0.45731    0.22191    0.99580   1.00
H3       0.37193    0.16759    1.06909   1.00
H3       0.40506    0.23597    1.05122   1.00
C4       0.41490    0.41502    0.68585   1.00
C4       0.41510    0.41498    0.64415   1.00
C3       0.39808    0.44547    0.70792   1.00
C3       0.38853    0.39188    0.62275   1.00
C3       0.43190    0.38388    0.70684   1.00
C3a      0.44168    0.43858    0.62237   1.00
C2       0.41599    0.41387    0.77017   1.00
C2       0.41382    0.41587    0.55983   1.00
C3       0.39867    0.44485    0.74934   1.00
C3       0.38794    0.39238    0.58141   1.00
C3       0.43258    0.38342    0.74820   1.00
C3       0.44053    0.43875    0.58085   1.00
H1       0.38448    0.46982    0.69308   1.00
H1       0.36790    0.37354    0.63815   1.00
H1       0.38555    0.46873    0.76532   1.00
H1       0.36705    0.37433    0.56605   1.00
H1       0.44638    0.35929    0.76321   1.00
H1       0.46086    0.45662    0.56457   1.00
C5       0.47219    0.46331    0.64261   1.00
H1       0.44567    0.36027    0.69099   1.00
H2       0.48750    0.48255    0.62146   1.00
H2       0.45766    0.48290    0.66397   1.00
N1       0.50112    0.43866    0.66208   1.00
C6       0.52420    0.41191    0.64488   1.00
C6       0.50979    0.43886    0.70040   1.00
C6       0.54766    0.39454    0.67257   1.00
C6       0.53847    0.41167    0.70789   1.00
H3       0.52391    0.40516    0.61401   1.00
H3       0.49580    0.45731    0.72191   1.00
H3       0.56909    0.37193    0.66759   1.00
H3       0.55122    0.40506    0.73597   1.00
C4       0.41490    0.91498    0.64415   1.00
C4       0.41510    0.91502    0.68585   1.00
C3       0.39808    0.88453    0.62208   1.00
C3       0.38853    0.93812    0.70725   1.00
C3       0.43190    0.94612    0.62316   1.00
C3a      0.44168    0.89142    0.70763   1.00
C2       0.41599    0.91613    0.55983   1.00
C2       0.41382    0.91413    0.77017   1.00
C3       0.39867    0.88515    0.58066   1.00
C3       0.38794    0.93762    0.74859   1.00
C3       0.43258    0.94658    0.58180   1.00
C3       0.44053    0.89125    0.74915   1.00
H1       0.38448    0.86018    0.63692   1.00
H1       0.36790    0.95646    0.69185   1.00
H1       0.38555    0.86127    0.56468   1.00
H1       0.36705    0.95567    0.76395   1.00
H1       0.44638    0.97071    0.56679   1.00
H1       0.46086    0.87338    0.76543   1.00
C5       0.47219    0.86669    0.68739   1.00
H1       0.44567    0.96973    0.63901   1.00
H2       0.48750    0.84745    0.70854   1.00
H2       0.45766    0.84710    0.66603   1.00
N1       0.50112    0.89134    0.66792   1.00
C6       0.52420    0.91809    0.68512   1.00
C6       0.50979    0.89114    0.62960   1.00
C6       0.54766    0.93546    0.65743   1.00
C6       0.53847    0.91833    0.62211   1.00
H3       0.52391    0.92484    0.71599   1.00
H3       0.49580    0.87269    0.60809   1.00
H3       0.56909    0.95807    0.66241   1.00
H3       0.55122    0.92494    0.59403   1.00
C4       0.41498    1.14415    0.41490   1.00
C4       0.41502    1.18585    0.41510   1.00
C3       0.38453    1.12208    0.39808   1.00
C3       0.43812    1.20725    0.38853   1.00
C3       0.44612    1.12316    0.43190   1.00
C3a      0.39142    1.20763    0.44168   1.00
C2       0.41613    1.05983    0.41599   1.00
C2       0.41413    1.27017    0.41382   1.00
C3       0.38515    1.08066    0.39867   1.00
C3       0.43762    1.24859    0.38794   1.00
C3       0.44658    1.08180    0.43258   1.00
C3       0.39125    1.24915    0.44053   1.00
H1       0.36018    1.13692    0.38448   1.00
H1       0.45646    1.19185    0.36790   1.00
H1       0.36127    1.06468    0.38555   1.00
H1       0.45567    1.26395    0.36705   1.00
H1       0.47071    1.06679    0.44638   1.00
H1       0.37338    1.26543    0.46086   1.00
C5       0.36669    1.18739    0.47219   1.00
H1       0.46973    1.13901    0.44567   1.00
H2       0.34745    1.20854    0.48750   1.00
H2       0.34710    1.16603    0.45766   1.00
N1       0.39134    1.16792    0.50112   1.00
C6       0.41809    1.18512    0.52420   1.00
C6       0.39114    1.12960    0.50979   1.00
C6       0.43546    1.15743    0.54766   1.00
C6       0.41833    1.12211    0.53847   1.00
H3       0.42484    1.21599    0.52391   1.00
H3       0.37269    1.10809    0.49580   1.00
H3       0.45807    1.16241    0.56909   1.00
H3       0.42494    1.09403    0.55122   1.00
C4       0.18585    0.91490    0.41502   1.00
C4       0.14415    0.91510    0.41498   1.00
C3       0.20792    0.89808    0.44547   1.00
C3       0.12275    0.88853    0.39188   1.00
C3       0.20684    0.93190    0.38388   1.00
C3a      0.12237    0.94168    0.43858   1.00
C2       0.27017    0.91599    0.41387   1.00
C2       0.05983    0.91382    0.41587   1.00
C3       0.24934    0.89867    0.44485   1.00
C3       0.08141    0.88794    0.39238   1.00
C3       0.24820    0.93258    0.38342   1.00
C3       0.08085    0.94053    0.43875   1.00
H1       0.19308    0.88448    0.46982   1.00
H1       0.13815    0.86790    0.37354   1.00
H1       0.26532    0.88555    0.46873   1.00
H1       0.06605    0.86705    0.37433   1.00
H1       0.26321    0.94638    0.35929   1.00
H1       0.06457    0.96086    0.45662   1.00
C5       0.14261    0.97219    0.46331   1.00
H1       0.19099    0.94567    0.36027   1.00
H2       0.12146    0.98750    0.48255   1.00
H2       0.16397    0.95766    0.48290   1.00
N1       0.16208    1.00112    0.43866   1.00
C6       0.14488    1.02420    0.41191   1.00
C6       0.20040    1.00979    0.43886   1.00
C6       0.17257    1.04766    0.39454   1.00
C6       0.20789    1.03847    0.41167   1.00
H3       0.11401    1.02391    0.40516   1.00
H3       0.22191    0.99580    0.45731   1.00
H3       0.16759    1.06909    0.37193   1.00
H3       0.23597    1.05122    0.40506   1.00
C4       0.64415    0.91490    0.41498   1.00
C4       0.68585    0.91510    0.41502   1.00
C3       0.62208    0.89808    0.38453   1.00
C3       0.70725    0.88853    0.43812   1.00
C3       0.62316    0.93190    0.44612   1.00
C3a      0.70763    0.94168    0.39142   1.00
C2       0.55983    0.91599    0.41613   1.00
C2       0.77017    0.91382    0.41413   1.00
C3       0.58066    0.89867    0.38515   1.00
C3       0.74859    0.88794    0.43762   1.00
C3       0.58180    0.93258    0.44658   1.00
C3       0.74915    0.94053    0.39125   1.00
H1       0.63692    0.88448    0.36018   1.00
H1       0.69185    0.86790    0.45646   1.00
H1       0.56468    0.88555    0.36127   1.00
H1       0.76395    0.86705    0.45567   1.00
H1       0.56679    0.94638    0.47071   1.00
H1       0.76543    0.96086    0.37338   1.00
C5       0.68739    0.97219    0.36669   1.00
H1       0.63901    0.94567    0.46973   1.00
H2       0.70854    0.98750    0.34745   1.00
H2       0.66603    0.95766    0.34710   1.00
N1       0.66792    1.00112    0.39134   1.00
C6       0.68512    1.02420    0.41809   1.00
C6       0.62960    1.00979    0.39114   1.00
C6       0.65743    1.04766    0.43546   1.00
C6       0.62211    1.03847    0.41833   1.00
H3       0.71599    1.02391    0.42484   1.00
H3       0.60809    0.99580    0.37269   1.00
H3       0.66241    1.06909    0.45807   1.00
H3       0.59403    1.05122    0.42494   1.00
C4       0.41502    0.68585    0.41490   1.00
C4       0.41498    0.64415    0.41510   1.00
C3       0.44547    0.70792    0.39808   1.00
C3       0.39188    0.62275    0.38853   1.00
C3       0.38388    0.70684    0.43190   1.00
C3a      0.43858    0.62237    0.44168   1.00
C2       0.41387    0.77017    0.41599   1.00
C2       0.41587    0.55983    0.41382   1.00
C3       0.44485    0.74934    0.39867   1.00
C3       0.39238    0.58141    0.38794   1.00
C3       0.38342    0.74820    0.43258   1.00
C3       0.43875    0.58085    0.44053   1.00
H1       0.46982    0.69308    0.38448   1.00
H1       0.37354    0.63815    0.36790   1.00
H1       0.46873    0.76532    0.38555   1.00
H1       0.37433    0.56605    0.36705   1.00
H1       0.35929    0.76321    0.44638   1.00
H1       0.45662    0.56457    0.46086   1.00
C5       0.46331    0.64261    0.47219   1.00
H1       0.36027    0.69099    0.44567   1.00
H2       0.48255    0.62146    0.48750   1.00
H2       0.48290    0.66397    0.45766   1.00
N1       0.43866    0.66208    0.50112   1.00
C6       0.41191    0.64488    0.52420   1.00
C6       0.43886    0.70040    0.50979   1.00
C6       0.39454    0.67257    0.54766   1.00
C6       0.41167    0.70789    0.53847   1.00
H3       0.40516    0.61401    0.52391   1.00
H3       0.45731    0.72191    0.49580   1.00
H3       0.37193    0.66759    0.56909   1.00
H3       0.40506    0.73597    0.55122   1.00
C4       0.41490    0.91502    0.18585   1.00
C4       0.41510    0.91498    0.14415   1.00
C3       0.39808    0.94547    0.20792   1.00
C3       0.38853    0.89188    0.12275   1.00
C3       0.43190    0.88388    0.20684   1.00
C3a      0.44168    0.93858    0.12237   1.00
C2       0.41599    0.91387    0.27017   1.00
C2       0.41382    0.91587    0.05983   1.00
C3       0.39867    0.94485    0.24934   1.00
C3       0.38794    0.89238    0.08141   1.00
C3       0.43258    0.88342    0.24820   1.00
C3       0.44053    0.93875    0.08085   1.00
H1       0.38448    0.96982    0.19308   1.00
H1       0.36790    0.87354    0.13815   1.00
H1       0.38555    0.96873    0.26532   1.00
H1       0.36705    0.87433    0.06605   1.00
H1       0.44638    0.85929    0.26321   1.00
H1       0.46086    0.95662    0.06457   1.00
C5       0.47219    0.96331    0.14261   1.00
H1       0.44567    0.86027    0.19099   1.00
H2       0.48750    0.98255    0.12146   1.00
H2       0.45766    0.98290    0.16397   1.00
N1       0.50112    0.93866    0.16208   1.00
C6       0.52420    0.91191    0.14488   1.00
C6       0.50979    0.93886    0.20040   1.00
C6       0.54766    0.89454    0.17257   1.00
C6       0.53847    0.91167    0.20789   1.00
H3       0.52391    0.90516    0.11401   1.00
H3       0.49580    0.95731    0.22191   1.00
H3       0.56909    0.87193    0.16759   1.00
H3       0.55122    0.90506    0.23597   1.00
C4       0.91490    0.41498    0.64415   1.00
C4       0.91510    0.41502    0.68585   1.00
C3       0.89808    0.38453    0.62208   1.00
C3       0.88853    0.43812    0.70725   1.00
C3       0.93190    0.44612    0.62316   1.00
C3a      0.94168    0.39142    0.70763   1.00
C2       0.91599    0.41613    0.55983   1.00
C2       0.91382    0.41413    0.77017   1.00
C3       0.89867    0.38515    0.58066   1.00
C3       0.88794    0.43762    0.74859   1.00
C3       0.93258    0.44658    0.58180   1.00
C3       0.94053    0.39125    0.74915   1.00
H1       0.88448    0.36018    0.63692   1.00
H1       0.86790    0.45646    0.69185   1.00
H1       0.88555    0.36127    0.56468   1.00
H1       0.86705    0.45567    0.76395   1.00
H1       0.94638    0.47071    0.56679   1.00
H1       0.96086    0.37338    0.76543   1.00
C5       0.97219    0.36669    0.68739   1.00
H1       0.94567    0.46973    0.63901   1.00
H2       0.98750    0.34745    0.70854   1.00
H2       0.95766    0.34710    0.66603   1.00
N1       1.00112    0.39134    0.66792   1.00
C6       1.02420    0.41809    0.68512   1.00
C6       1.00979    0.39114    0.62960   1.00
C6       1.04766    0.43546    0.65743   1.00
C6       1.03847    0.41833    0.62211   1.00
H3       1.02391    0.42484    0.71599   1.00
H3       0.99580    0.37269    0.60809   1.00
H3       1.06909    0.45807    0.66241   1.00
H3       1.05122    0.42494    0.59403   1.00
C4       0.91498    0.64415    0.41490   1.00
C4       0.91502    0.68585    0.41510   1.00
C3       0.88453    0.62208    0.39808   1.00
C3       0.93812    0.70725    0.38853   1.00
C3       0.94612    0.62316    0.43190   1.00
C3a      0.89142    0.70763    0.44168   1.00
C2       0.91613    0.55983    0.41599   1.00
C2       0.91413    0.77017    0.41382   1.00
C3       0.88515    0.58066    0.39867   1.00
C3       0.93762    0.74859    0.38794   1.00
C3       0.94658    0.58180    0.43258   1.00
C3       0.89125    0.74915    0.44053   1.00
H1       0.86018    0.63692    0.38448   1.00
H1       0.95646    0.69185    0.36790   1.00
H1       0.86127    0.56468    0.38555   1.00
H1       0.95567    0.76395    0.36705   1.00
H1       0.97071    0.56679    0.44638   1.00
H1       0.87338    0.76543    0.46086   1.00
C5       0.86669    0.68739    0.47219   1.00
H1       0.96973    0.63901    0.44567   1.00
H2       0.84745    0.70854    0.48750   1.00
H2       0.84710    0.66603    0.45766   1.00
N1       0.89134    0.66792    0.50112   1.00
C6       0.91809    0.68512    0.52420   1.00
C6       0.89114    0.62960    0.50979   1.00
C6       0.93546    0.65743    0.54766   1.00
C6       0.91833    0.62211    0.53847   1.00
H3       0.92484    0.71599    0.52391   1.00
H3       0.87269    0.60809    0.49580   1.00
H3       0.95807    0.66241    0.56909   1.00
H3       0.92494    0.59403    0.55122   1.00
C4       0.68585    0.41490    0.41502   1.00
C4       0.64415    0.41510    0.41498   1.00
C3       0.70792    0.39808    0.44547   1.00
C3       0.62275    0.38853    0.39188   1.00
C3       0.70684    0.43190    0.38388   1.00
C3a      0.62237    0.44168    0.43858   1.00
C2       0.77017    0.41599    0.41387   1.00
C2       0.55983    0.41382    0.41587   1.00
C3       0.74934    0.39867    0.44485   1.00
C3       0.58141    0.38794    0.39238   1.00
C3       0.74820    0.43258    0.38342   1.00
C3       0.58085    0.44053    0.43875   1.00
H1       0.69308    0.38448    0.46982   1.00
H1       0.63815    0.36790    0.37354   1.00
H1       0.76532    0.38555    0.46873   1.00
H1       0.56605    0.36705    0.37433   1.00
H1       0.76321    0.44638    0.35929   1.00
H1       0.56457    0.46086    0.45662   1.00
C5       0.64261    0.47219    0.46331   1.00
H1       0.69099    0.44567    0.36027   1.00
H2       0.62146    0.48750    0.48255   1.00
H2       0.66397    0.45766    0.48290   1.00
N1       0.66208    0.50112    0.43866   1.00
C6       0.64488    0.52420    0.41191   1.00
C6       0.70040    0.50979    0.43886   1.00
C6       0.67257    0.54766    0.39454   1.00
C6       0.70789    0.53847    0.41167   1.00
H3       0.61401    0.52391    0.40516   1.00
H3       0.72191    0.49580    0.45731   1.00
H3       0.66759    0.56909    0.37193   1.00
H3       0.73597    0.55122    0.40506   1.00
C4       1.14415    0.41490    0.41498   1.00
C4       1.18585    0.41510    0.41502   1.00
C3       1.12208    0.39808    0.38453   1.00
C3       1.20725    0.38853    0.43812   1.00
C3       1.12316    0.43190    0.44612   1.00
C3a      1.20763    0.44168    0.39142   1.00
C2       1.05983    0.41599    0.41613   1.00
C2       1.27017    0.41382    0.41413   1.00
C3       1.08066    0.39867    0.38515   1.00
C3       1.24859    0.38794    0.43762   1.00
C3       1.08180    0.43258    0.44658   1.00
C3       1.24915    0.44053    0.39125   1.00
H1       1.13692    0.38448    0.36018   1.00
H1       1.19185    0.36790    0.45646   1.00
H1       1.06468    0.38555    0.36127   1.00
H1       1.26395    0.36705    0.45567   1.00
H1       1.06679    0.44638    0.47071   1.00
H1       1.26543    0.46086    0.37338   1.00
C5       1.18739    0.47219    0.36669   1.00
H1       1.13901    0.44567    0.46973   1.00
H2       1.20854    0.48750    0.34745   1.00
H2       1.16603    0.45766    0.34710   1.00
N1       1.16792    0.50112    0.39134   1.00
C6       1.18512    0.52420    0.41809   1.00
C6       1.12960    0.50979    0.39114   1.00
C6       1.15743    0.54766    0.43546   1.00
C6       1.12211    0.53847    0.41833   1.00
H3       1.21599    0.52391    0.42484   1.00
H3       1.10809    0.49580    0.37269   1.00
H3       1.16241    0.56909    0.45807   1.00
H3       1.09403    0.55122    0.42494   1.00
C4       0.91502    0.18585    0.41490   1.00
C4       0.91498    0.14415    0.41510   1.00
C3       0.94547    0.20792    0.39808   1.00
C3       0.89188    0.12275    0.38853   1.00
C3       0.88388    0.20684    0.43190   1.00
C3a      0.93858    0.12237    0.44168   1.00
C2       0.91387    0.27017    0.41599   1.00
C2       0.91587    0.05983    0.41382   1.00
C3       0.94485    0.24934    0.39867   1.00
C3       0.89238    0.08141    0.38794   1.00
C3       0.88342    0.24820    0.43258   1.00
C3       0.93875    0.08085    0.44053   1.00
H1       0.96982    0.19308    0.38448   1.00
H1       0.87354    0.13815    0.36790   1.00
H1       0.96873    0.26532    0.38555   1.00
H1       0.87433    0.06605    0.36705   1.00
H1       0.85929    0.26321    0.44638   1.00
H1       0.95662    0.06457    0.46086   1.00
C5       0.96331    0.14261    0.47219   1.00
H1       0.86027    0.19099    0.44567   1.00
H2       0.98255    0.12146    0.48750   1.00
H2       0.98290    0.16397    0.45766   1.00
N1       0.93866    0.16208    0.50112   1.00
C6       0.91191    0.14488    0.52420   1.00
C6       0.93886    0.20040    0.50979   1.00
C6       0.89454    0.17257    0.54766   1.00
C6       0.91167    0.20789    0.53847   1.00
H3       0.90516    0.11401    0.52391   1.00
H3       0.95731    0.22191    0.49580   1.00
H3       0.87193    0.16759    0.56909   1.00
H3       0.90506    0.23597    0.55122   1.00
C4       0.91490    0.41502    0.18585   1.00
C4       0.91510    0.41498    0.14415   1.00
C3       0.89808    0.44547    0.20792   1.00
C3       0.88853    0.39188    0.12275   1.00
C3       0.93190    0.38388    0.20684   1.00
C3a      0.94168    0.43858    0.12237   1.00
C2       0.91599    0.41387    0.27017   1.00
C2       0.91382    0.41587    0.05983   1.00
C3       0.89867    0.44485    0.24934   1.00
C3       0.88794    0.39238    0.08141   1.00
C3       0.93258    0.38342    0.24820   1.00
C3       0.94053    0.43875    0.08085   1.00
H1       0.88448    0.46982    0.19308   1.00
H1       0.86790    0.37354    0.13815   1.00
H1       0.88555    0.46873    0.26532   1.00
H1       0.86705    0.37433    0.06605   1.00
H1       0.94638    0.35929    0.26321   1.00
H1       0.96086    0.45662    0.06457   1.00
C5       0.97219    0.46331    0.14261   1.00
H1       0.94567    0.36027    0.19099   1.00
H2       0.98750    0.48255    0.12146   1.00
H2       0.95766    0.48290    0.16397   1.00
N1       1.00112    0.43866    0.16208   1.00
C6       1.02420    0.41191    0.14488   1.00
C6       1.00979    0.43886    0.20040   1.00
C6       1.04766    0.39454    0.17257   1.00
C6       1.03847    0.41167    0.20789   1.00
H3       1.02391    0.40516    0.11401   1.00
H3       0.99580    0.45731    0.22191   1.00
H3       1.06909    0.37193    0.16759   1.00
H3       1.05122    0.40506    0.23597   1.00
