data_IRMOF10_SG202_interpen_Ligand4cp_label_s.

_audit_creation_method             'generated by an auxiliary program of Tobunporous'

_symmetry_space_group_name_H-M     'P 1'
_symmetry_Int_Tables_number        1
_symmetry_cell_setting             triclinic

_cell_length_a                    34.2800
_cell_length_b                    34.2800
_cell_length_c                    34.2800
_cell_angle_alpha                 90.0000
_cell_angle_beta                  90.0000
_cell_angle_gamma                 90.0000

loop_
_atom_site_label
_atom_site_fract_x
_atom_site_fract_y
_atom_site_fract_z
_atom_site_occupancy
O1       0.75000    0.75000    0.75000   1.00
Zn1      0.71720    0.78280    0.78280   1.00
Zn1      0.78280    0.71720    0.78280   1.00
Zn1      0.78280    0.78280    0.71720   1.00
Zn1      0.71720    0.71720    0.71720   1.00
O2       0.72650    0.77350    0.83820   1.00
O2       0.72650    0.83820    0.77350   1.00
O2       0.66180    0.77350    0.77350   1.00
O2       0.77350    0.72650    0.83820   1.00
O2       0.83820    0.72650    0.77350   1.00
O2       0.77350    0.66180    0.77350   1.00
O2       0.77350    0.83820    0.72650   1.00
O2       0.83820    0.77350    0.72650   1.00
O2       0.77350    0.77350    0.66180   1.00
O2       0.66180    0.72650    0.72650   1.00
O2       0.72650    0.66180    0.72650   1.00
O2       0.72650    0.72650    0.66180   1.00
C1       0.75000    0.75000    0.85520   1.00
C1       0.75000    0.85520    0.75000   1.00
C1       0.64480    0.75000    0.75000   1.00
C1       0.85520    0.75000    0.75000   1.00
C1       0.75000    0.64480    0.75000   1.00
C1       0.75000    0.75000    0.64480   1.00
O1       0.25000    0.25000    0.75000   1.00
Zn1      0.21720    0.28280    0.78280   1.00
Zn1      0.28280    0.21720    0.78280   1.00
Zn1      0.28280    0.28280    0.71720   1.00
Zn1      0.21720    0.21720    0.71720   1.00
O2       0.22650    0.27350    0.83820   1.00
O2       0.22650    0.33820    0.77350   1.00
O2       0.16180    0.27350    0.77350   1.00
O2       0.27350    0.22650    0.83820   1.00
O2       0.33820    0.22650    0.77350   1.00
O2       0.27350    0.16180    0.77350   1.00
O2       0.27350    0.33820    0.72650   1.00
O2       0.33820    0.27350    0.72650   1.00
O2       0.27350    0.27350    0.66180   1.00
O2       0.16180    0.22650    0.72650   1.00
O2       0.22650    0.16180    0.72650   1.00
O2       0.22650    0.22650    0.66180   1.00
C1       0.25000    0.25000    0.85520   1.00
C1       0.25000    0.35520    0.75000   1.00
C1       0.14480    0.25000    0.75000   1.00
C1       0.35520    0.25000    0.75000   1.00
C1       0.25000    0.14480    0.75000   1.00
C1       0.25000    0.25000    0.64480   1.00
O1       0.25000    0.75000    0.25000   1.00
Zn1      0.21720    0.78280    0.28280   1.00
Zn1      0.28280    0.71720    0.28280   1.00
Zn1      0.28280    0.78280    0.21720   1.00
Zn1      0.21720    0.71720    0.21720   1.00
O2       0.22650    0.77350    0.33820   1.00
O2       0.22650    0.83820    0.27350   1.00
O2       0.16180    0.77350    0.27350   1.00
O2       0.27350    0.72650    0.33820   1.00
O2       0.33820    0.72650    0.27350   1.00
O2       0.27350    0.66180    0.27350   1.00
O2       0.27350    0.83820    0.22650   1.00
O2       0.33820    0.77350    0.22650   1.00
O2       0.27350    0.77350    0.16180   1.00
O2       0.16180    0.72650    0.22650   1.00
O2       0.22650    0.66180    0.22650   1.00
O2       0.22650    0.72650    0.16180   1.00
C1       0.25000    0.75000    0.35520   1.00
C1       0.25000    0.85520    0.25000   1.00
C1       0.14480    0.75000    0.25000   1.00
C1       0.35520    0.75000    0.25000   1.00
C1       0.25000    0.64480    0.25000   1.00
C1       0.25000    0.75000    0.14480   1.00
O1       0.75000    0.25000    0.25000   1.00
Zn1      0.71720    0.28280    0.28280   1.00
Zn1      0.78280    0.21720    0.28280   1.00
Zn1      0.78280    0.28280    0.21720   1.00
Zn1      0.71720    0.21720    0.21720   1.00
O2       0.72650    0.27350    0.33820   1.00
O2       0.72650    0.33820    0.27350   1.00
O2       0.66180    0.27350    0.27350   1.00
O2       0.77350    0.22650    0.33820   1.00
O2       0.83820    0.22650    0.27350   1.00
O2       0.77350    0.16180    0.27350   1.00
O2       0.77350    0.33820    0.22650   1.00
O2       0.83820    0.27350    0.22650   1.00
O2       0.77350    0.27350    0.16180   1.00
O2       0.66180    0.22650    0.22650   1.00
O2       0.72650    0.16180    0.22650   1.00
O2       0.72650    0.22650    0.16180   1.00
C1       0.75000    0.25000    0.35520   1.00
C1       0.75000    0.35520    0.25000   1.00
C1       0.64480    0.25000    0.25000   1.00
C1       0.85520    0.25000    0.25000   1.00
C1       0.75000    0.14480    0.25000   1.00
C1       0.75000    0.25000    0.14480   1.00
O1       0.25000    0.25000    0.25000   1.00
Zn1      0.28280    0.21720    0.21720   1.00
Zn1      0.21720    0.28280    0.21720   1.00
Zn1      0.21720    0.21720    0.28280   1.00
Zn1      0.28280    0.28280    0.28280   1.00
O2       0.27350    0.22650    0.16180   1.00
O2       0.27350    0.16180    0.22650   1.00
O2       0.33820    0.22650    0.22650   1.00
O2       0.22650    0.27350    0.16180   1.00
O2       0.16180    0.27350    0.22650   1.00
O2       0.22650    0.33820    0.22650   1.00
O2       0.22650    0.16180    0.27350   1.00
O2       0.16180    0.22650    0.27350   1.00
O2       0.22650    0.22650    0.33820   1.00
O2       0.33820    0.27350    0.27350   1.00
O2       0.27350    0.33820    0.27350   1.00
O2       0.27350    0.27350    0.33820   1.00
C1       0.25000    0.25000    0.14480   1.00
C1       0.25000    0.14480    0.25000   1.00
C1       0.35520    0.25000    0.25000   1.00
C1       0.14480    0.25000    0.25000   1.00
C1       0.25000    0.35520    0.25000   1.00
C1       0.25000    0.25000    0.35520   1.00
O1       0.75000    0.75000    0.25000   1.00
Zn1      0.78280    0.71720    0.21720   1.00
Zn1      0.71720    0.78280    0.21720   1.00
Zn1      0.71720    0.71720    0.28280   1.00
Zn1      0.78280    0.78280    0.28280   1.00
O2       0.77350    0.72650    0.16180   1.00
O2       0.77350    0.66180    0.22650   1.00
O2       0.83820    0.72650    0.22650   1.00
O2       0.72650    0.77350    0.16180   1.00
O2       0.66180    0.77350    0.22650   1.00
O2       0.72650    0.83820    0.22650   1.00
O2       0.72650    0.66180    0.27350   1.00
O2       0.66180    0.72650    0.27350   1.00
O2       0.72650    0.72650    0.33820   1.00
O2       0.83820    0.77350    0.27350   1.00
O2       0.77350    0.83820    0.27350   1.00
O2       0.77350    0.77350    0.33820   1.00
C1       0.75000    0.75000    0.14480   1.00
C1       0.75000    0.64480    0.25000   1.00
C1       0.85520    0.75000    0.25000   1.00
C1       0.64480    0.75000    0.25000   1.00
C1       0.75000    0.85520    0.25000   1.00
C1       0.75000    0.75000    0.35520   1.00
O1       0.75000    0.25000    0.75000   1.00
Zn1      0.78280    0.21720    0.71720   1.00
Zn1      0.71720    0.28280    0.71720   1.00
Zn1      0.71720    0.21720    0.78280   1.00
Zn1      0.78280    0.28280    0.78280   1.00
O2       0.77350    0.22650    0.66180   1.00
O2       0.77350    0.16180    0.72650   1.00
O2       0.83820    0.22650    0.72650   1.00
O2       0.72650    0.27350    0.66180   1.00
O2       0.66180    0.27350    0.72650   1.00
O2       0.72650    0.33820    0.72650   1.00
O2       0.72650    0.16180    0.77350   1.00
O2       0.66180    0.22650    0.77350   1.00
O2       0.72650    0.22650    0.83820   1.00
O2       0.83820    0.27350    0.77350   1.00
O2       0.77350    0.33820    0.77350   1.00
O2       0.77350    0.27350    0.83820   1.00
C1       0.75000    0.25000    0.64480   1.00
C1       0.75000    0.14480    0.75000   1.00
C1       0.85520    0.25000    0.75000   1.00
C1       0.64480    0.25000    0.75000   1.00
C1       0.75000    0.35520    0.75000   1.00
C1       0.75000    0.25000    0.85520   1.00
O1       0.25000    0.75000    0.75000   1.00
Zn1      0.28280    0.71720    0.71720   1.00
Zn1      0.21720    0.78280    0.71720   1.00
Zn1      0.21720    0.71720    0.78280   1.00
Zn1      0.28280    0.78280    0.78280   1.00
O2       0.27350    0.72650    0.66180   1.00
O2       0.27350    0.66180    0.72650   1.00
O2       0.33820    0.72650    0.72650   1.00
O2       0.22650    0.77350    0.66180   1.00
O2       0.16180    0.77350    0.72650   1.00
O2       0.22650    0.83820    0.72650   1.00
O2       0.22650    0.66180    0.77350   1.00
O2       0.16180    0.72650    0.77350   1.00
O2       0.22650    0.72650    0.83820   1.00
O2       0.33820    0.77350    0.77350   1.00
O2       0.27350    0.83820    0.77350   1.00
O2       0.27350    0.77350    0.83820   1.00
C1       0.25000    0.75000    0.64480   1.00
C1       0.25000    0.64480    0.75000   1.00
C1       0.35520    0.75000    0.75000   1.00
C1       0.14480    0.75000    0.75000   1.00
C1       0.25000    0.85520    0.75000   1.00
C1       0.25000    0.75000    0.85520   1.00
O1       0.91500    0.91500    0.91500   1.00
Zn1      0.88220    0.94780    0.94780   1.00
Zn1      0.94780    0.88220    0.94780   1.00
Zn1      0.94780    0.94780    0.88220   1.00
Zn1      0.88220    0.88220    0.88220   1.00
O2       0.89150    0.93850    1.00320   1.00
O2       0.89150    1.00320    0.93850   1.00
O2       0.82680    0.93850    0.93850   1.00
O2       0.93850    0.89150    1.00320   1.00
O2       1.00320    0.89150    0.93850   1.00
O2       0.93850    0.82680    0.93850   1.00
O2       0.93850    1.00320    0.89150   1.00
O2       1.00320    0.93850    0.89150   1.00
O2       0.93850    0.93850    0.82680   1.00
O2       0.82680    0.89150    0.89150   1.00
O2       0.89150    0.82680    0.89150   1.00
O2       0.89150    0.89150    0.82680   1.00
C1       0.91500    0.91500    1.02020   1.00
C1       0.91500    1.02020    0.91500   1.00
C1       0.80980    0.91500    0.91500   1.00
C1       1.02020    0.91500    0.91500   1.00
C1       0.91500    0.80980    0.91500   1.00
C1       0.91500    0.91500    0.80980   1.00
O1       0.41500    0.41500    0.91500   1.00
Zn1      0.38220    0.44780    0.94780   1.00
Zn1      0.44780    0.38220    0.94780   1.00
Zn1      0.44780    0.44780    0.88220   1.00
Zn1      0.38220    0.38220    0.88220   1.00
O2       0.39150    0.43850    1.00320   1.00
O2       0.39150    0.50320    0.93850   1.00
O2       0.32680    0.43850    0.93850   1.00
O2       0.43850    0.39150    1.00320   1.00
O2       0.50320    0.39150    0.93850   1.00
O2       0.43850    0.32680    0.93850   1.00
O2       0.43850    0.50320    0.89150   1.00
O2       0.50320    0.43850    0.89150   1.00
O2       0.43850    0.43850    0.82680   1.00
O2       0.32680    0.39150    0.89150   1.00
O2       0.39150    0.32680    0.89150   1.00
O2       0.39150    0.39150    0.82680   1.00
C1       0.41500    0.41500    1.02020   1.00
C1       0.41500    0.52020    0.91500   1.00
C1       0.30980    0.41500    0.91500   1.00
C1       0.52020    0.41500    0.91500   1.00
C1       0.41500    0.30980    0.91500   1.00
C1       0.41500    0.41500    0.80980   1.00
O1       0.41500    0.91500    0.41500   1.00
Zn1      0.38220    0.94780    0.44780   1.00
Zn1      0.44780    0.88220    0.44780   1.00
Zn1      0.44780    0.94780    0.38220   1.00
Zn1      0.38220    0.88220    0.38220   1.00
O2       0.39150    0.93850    0.50320   1.00
O2       0.39150    1.00320    0.43850   1.00
O2       0.32680    0.93850    0.43850   1.00
O2       0.43850    0.89150    0.50320   1.00
O2       0.50320    0.89150    0.43850   1.00
O2       0.43850    0.82680    0.43850   1.00
O2       0.43850    1.00320    0.39150   1.00
O2       0.50320    0.93850    0.39150   1.00
O2       0.43850    0.93850    0.32680   1.00
O2       0.32680    0.89150    0.39150   1.00
O2       0.39150    0.82680    0.39150   1.00
O2       0.39150    0.89150    0.32680   1.00
C1       0.41500    0.91500    0.52020   1.00
C1       0.41500    1.02020    0.41500   1.00
C1       0.30980    0.91500    0.41500   1.00
C1       0.52020    0.91500    0.41500   1.00
C1       0.41500    0.80980    0.41500   1.00
C1       0.41500    0.91500    0.30980   1.00
O1       0.91500    0.41500    0.41500   1.00
Zn1      0.88220    0.44780    0.44780   1.00
Zn1      0.94780    0.38220    0.44780   1.00
Zn1      0.94780    0.44780    0.38220   1.00
Zn1      0.88220    0.38220    0.38220   1.00
O2       0.89150    0.43850    0.50320   1.00
O2       0.89150    0.50320    0.43850   1.00
O2       0.82680    0.43850    0.43850   1.00
O2       0.93850    0.39150    0.50320   1.00
O2       1.00320    0.39150    0.43850   1.00
O2       0.93850    0.32680    0.43850   1.00
O2       0.93850    0.50320    0.39150   1.00
O2       1.00320    0.43850    0.39150   1.00
O2       0.93850    0.43850    0.32680   1.00
O2       0.82680    0.39150    0.39150   1.00
O2       0.89150    0.32680    0.39150   1.00
O2       0.89150    0.39150    0.32680   1.00
C1       0.91500    0.41500    0.52020   1.00
C1       0.91500    0.52020    0.41500   1.00
C1       0.80980    0.41500    0.41500   1.00
C1       1.02020    0.41500    0.41500   1.00
C1       0.91500    0.30980    0.41500   1.00
C1       0.91500    0.41500    0.30980   1.00
O1       0.41500    0.41500    0.41500   1.00
Zn1      0.44780    0.38220    0.38220   1.00
Zn1      0.38220    0.44780    0.38220   1.00
Zn1      0.38220    0.38220    0.44780   1.00
Zn1      0.44780    0.44780    0.44780   1.00
O2       0.43850    0.39150    0.32680   1.00
O2       0.43850    0.32680    0.39150   1.00
O2       0.50320    0.39150    0.39150   1.00
O2       0.39150    0.43850    0.32680   1.00
O2       0.32680    0.43850    0.39150   1.00
O2       0.39150    0.50320    0.39150   1.00
O2       0.39150    0.32680    0.43850   1.00
O2       0.32680    0.39150    0.43850   1.00
O2       0.39150    0.39150    0.50320   1.00
O2       0.50320    0.43850    0.43850   1.00
O2       0.43850    0.50320    0.43850   1.00
O2       0.43850    0.43850    0.50320   1.00
C1       0.41500    0.41500    0.30980   1.00
C1       0.41500    0.30980    0.41500   1.00
C1       0.52020    0.41500    0.41500   1.00
C1       0.30980    0.41500    0.41500   1.00
C1       0.41500    0.52020    0.41500   1.00
C1       0.41500    0.41500    0.52020   1.00
O1       0.91500    0.91500    0.41500   1.00
Zn1      0.94780    0.88220    0.38220   1.00
Zn1      0.88220    0.94780    0.38220   1.00
Zn1      0.88220    0.88220    0.44780   1.00
Zn1      0.94780    0.94780    0.44780   1.00
O2       0.93850    0.89150    0.32680   1.00
O2       0.93850    0.82680    0.39150   1.00
O2       1.00320    0.89150    0.39150   1.00
O2       0.89150    0.93850    0.32680   1.00
O2       0.82680    0.93850    0.39150   1.00
O2       0.89150    1.00320    0.39150   1.00
O2       0.89150    0.82680    0.43850   1.00
O2       0.82680    0.89150    0.43850   1.00
O2       0.89150    0.89150    0.50320   1.00
O2       1.00320    0.93850    0.43850   1.00
O2       0.93850    1.00320    0.43850   1.00
O2       0.93850    0.93850    0.50320   1.00
C1       0.91500    0.91500    0.30980   1.00
C1       0.91500    0.80980    0.41500   1.00
C1       1.02020    0.91500    0.41500   1.00
C1       0.80980    0.91500    0.41500   1.00
C1       0.91500    1.02020    0.41500   1.00
C1       0.91500    0.91500    0.52020   1.00
O1       0.91500    0.41500    0.91500   1.00
Zn1      0.94780    0.38220    0.88220   1.00
Zn1      0.88220    0.44780    0.88220   1.00
Zn1      0.88220    0.38220    0.94780   1.00
Zn1      0.94780    0.44780    0.94780   1.00
O2       0.93850    0.39150    0.82680   1.00
O2       0.93850    0.32680    0.89150   1.00
O2       1.00320    0.39150    0.89150   1.00
O2       0.89150    0.43850    0.82680   1.00
O2       0.82680    0.43850    0.89150   1.00
O2       0.89150    0.50320    0.89150   1.00
O2       0.89150    0.32680    0.93850   1.00
O2       0.82680    0.39150    0.93850   1.00
O2       0.89150    0.39150    1.00320   1.00
O2       1.00320    0.43850    0.93850   1.00
O2       0.93850    0.50320    0.93850   1.00
O2       0.93850    0.43850    1.00320   1.00
C1       0.91500    0.41500    0.80980   1.00
C1       0.91500    0.30980    0.91500   1.00
C1       1.02020    0.41500    0.91500   1.00
C1       0.80980    0.41500    0.91500   1.00
C1       0.91500    0.52020    0.91500   1.00
C1       0.91500    0.41500    1.02020   1.00
O1       0.41500    0.91500    0.91500   1.00
Zn1      0.44780    0.88220    0.88220   1.00
Zn1      0.38220    0.94780    0.88220   1.00
Zn1      0.38220    0.88220    0.94780   1.00
Zn1      0.44780    0.94780    0.94780   1.00
O2       0.43850    0.89150    0.82680   1.00
O2       0.43850    0.82680    0.89150   1.00
O2       0.50320    0.89150    0.89150   1.00
O2       0.39150    0.93850    0.82680   1.00
O2       0.32680    0.93850    0.89150   1.00
O2       0.39150    1.00320    0.89150   1.00
O2       0.39150    0.82680    0.93850   1.00
O2       0.32680    0.89150    0.93850   1.00
O2       0.39150    0.89150    1.00320   1.00
O2       0.50320    0.93850    0.93850   1.00
O2       0.43850    1.00320    0.93850   1.00
O2       0.43850    0.93850    1.00320   1.00
C1       0.41500    0.91500    0.80980   1.00
C1       0.41500    0.80980    0.91500   1.00
C1       0.52020    0.91500    0.91500   1.00
C1       0.30980    0.91500    0.91500   1.00
C1       0.41500    1.02020    0.91500   1.00
C1       0.41500    0.91500    1.02020   1.00
C4       0.75249    0.75410    0.98025   1.00
C4       0.75403    0.75424    1.02191   1.00
C3       0.72328    0.77468    0.95897   1.00
C3       0.72910    0.77817    1.04504   1.00
C3       0.78096    0.73266    0.95854   1.00
C3       0.78141    0.72974    1.04170   1.00
C2       0.75047    0.75540    0.89595   1.00
C2       0.75580    0.75314    1.10622   1.00
C3       0.72236    0.77552    0.91811   1.00
C3       0.72977    0.77754    1.08591   1.00
C3       0.77913    0.73445    0.91696   1.00
C3       0.78100    0.72980    1.08336   1.00
H1       0.70136    0.78951    0.97237   1.00
H1       0.70979    0.79724    1.03306   1.00
C5       0.81009    0.71006    0.97835   1.00
C5       0.80836    0.70622    1.01998   1.00
H1       0.70063    0.79103    0.90451   1.00
H1       0.71093    0.79539    1.10091   1.00
H1       0.79902    0.71981    0.90052   1.00
H1       0.79985    0.71257    1.09848   1.00
C6       0.84248    0.69095    0.95515   1.00
C6       0.83427    0.67739    1.04119   1.00
H2       0.85325    0.71155    0.93345   1.00
H2       0.81703    0.66211    1.06310   1.00
H2       0.86835    0.68618    0.97286   1.00
H2       0.84320    0.65354    1.02228   1.00
C6       0.83000    0.65129    0.93606   1.00
C6       0.87154    0.69666    1.05942   1.00
H2       0.80110    0.65439    0.92292   1.00
H2       0.86348    0.72396    1.07383   1.00
C6       0.85782    0.63333    0.90459   1.00
C6       0.89578    0.67180    1.08911   1.00
H2       0.82633    0.62998    0.95949   1.00
H2       0.89077    0.70518    1.03546   1.00
C6       0.85974    0.65900    0.86735   1.00
C6       0.87250    0.66370    1.12708   1.00
C6       0.89962    0.62734    0.92074   1.00
C6       0.90903    0.63253    1.07107   1.00
C6       0.84159    0.59280    0.89245   1.00
C6       0.93289    0.69516    1.10054   1.00
H2       0.83060    0.66431    0.85558   1.00
H2       0.86217    0.69085    1.14020   1.00
H2       0.87315    0.68719    0.87330   1.00
H2       0.84720    0.64529    1.12154   1.00
H2       0.87701    0.64494    0.84459   1.00
H2       0.89054    0.64873    1.14863   1.00
H2       0.91802    0.61227    0.89955   1.00
H2       0.92821    0.61670    1.09098   1.00
H2       0.91343    0.65524    0.92725   1.00
H2       0.88406    0.61380    1.06494   1.00
H2       0.89902    0.61002    0.94745   1.00
H2       0.92481    0.63737    1.04385   1.00
H2       0.81220    0.59544    0.88042   1.00
H2       0.92515    0.72307    1.11383   1.00
H2       0.85993    0.57916    0.87025   1.00
H2       0.95070    0.67907    1.12149   1.00
H2       0.84027    0.57305    0.91739   1.00
H2       0.95099    0.70112    1.07502   1.00
C4       0.75410    0.98025    0.75249   1.00
C4       0.75424    1.02191    0.75403   1.00
C3       0.77468    0.95897    0.72328   1.00
C3       0.77817    1.04504    0.72910   1.00
C3       0.73266    0.95854    0.78096   1.00
C3       0.72974    1.04170    0.78141   1.00
C2       0.75540    0.89595    0.75047   1.00
C2       0.75314    1.10622    0.75580   1.00
C3       0.77552    0.91811    0.72236   1.00
C3       0.77754    1.08591    0.72977   1.00
C3       0.73445    0.91696    0.77913   1.00
C3       0.72980    1.08336    0.78100   1.00
H1       0.78951    0.97237    0.70136   1.00
H1       0.79724    1.03306    0.70979   1.00
C5       0.71006    0.97835    0.81009   1.00
C5       0.70622    1.01998    0.80836   1.00
H1       0.79103    0.90451    0.70063   1.00
H1       0.79539    1.10091    0.71093   1.00
H1       0.71981    0.90052    0.79902   1.00
H1       0.71257    1.09848    0.79985   1.00
C6       0.69095    0.95515    0.84248   1.00
C6       0.67739    1.04119    0.83427   1.00
H2       0.71155    0.93345    0.85325   1.00
H2       0.66211    1.06310    0.81703   1.00
H2       0.68618    0.97286    0.86835   1.00
H2       0.65354    1.02228    0.84320   1.00
C6       0.65129    0.93606    0.83000   1.00
C6       0.69666    1.05942    0.87154   1.00
H2       0.65439    0.92292    0.80110   1.00
H2       0.72396    1.07383    0.86348   1.00
C6       0.63333    0.90459    0.85782   1.00
C6       0.67180    1.08911    0.89578   1.00
H2       0.62998    0.95949    0.82633   1.00
H2       0.70518    1.03546    0.89077   1.00
C6       0.65900    0.86735    0.85974   1.00
C6       0.66370    1.12708    0.87250   1.00
C6       0.62734    0.92074    0.89962   1.00
C6       0.63253    1.07107    0.90903   1.00
C6       0.59280    0.89245    0.84159   1.00
C6       0.69516    1.10054    0.93289   1.00
H2       0.66431    0.85558    0.83060   1.00
H2       0.69085    1.14020    0.86217   1.00
H2       0.68719    0.87330    0.87315   1.00
H2       0.64529    1.12154    0.84720   1.00
H2       0.64494    0.84459    0.87701   1.00
H2       0.64873    1.14863    0.89054   1.00
H2       0.61227    0.89955    0.91802   1.00
H2       0.61670    1.09098    0.92821   1.00
H2       0.65524    0.92725    0.91343   1.00
H2       0.61380    1.06494    0.88406   1.00
H2       0.61002    0.94745    0.89902   1.00
H2       0.63737    1.04385    0.92481   1.00
H2       0.59544    0.88042    0.81220   1.00
H2       0.72307    1.11383    0.92515   1.00
H2       0.57916    0.87025    0.85993   1.00
H2       0.67907    1.12149    0.95070   1.00
H2       0.57305    0.91739    0.84027   1.00
H2       0.70112    1.07502    0.95099   1.00
C4       0.51975    0.75249    0.74590   1.00
C4       0.47809    0.75403    0.74576   1.00
C3       0.54103    0.72328    0.72532   1.00
C3       0.45496    0.72910    0.72183   1.00
C3       0.54146    0.78096    0.76734   1.00
C3       0.45830    0.78141    0.77026   1.00
C2       0.60405    0.75047    0.74460   1.00
C2       0.39378    0.75580    0.74686   1.00
C3       0.58189    0.72236    0.72448   1.00
C3       0.41409    0.72977    0.72246   1.00
C3       0.58304    0.77913    0.76555   1.00
C3       0.41664    0.78100    0.77020   1.00
H1       0.52763    0.70136    0.71049   1.00
H1       0.46694    0.70979    0.70276   1.00
C5       0.52165    0.81009    0.78994   1.00
C5       0.48002    0.80836    0.79378   1.00
H1       0.59549    0.70063    0.70897   1.00
H1       0.39909    0.71093    0.70461   1.00
H1       0.59948    0.79902    0.78019   1.00
H1       0.40152    0.79985    0.78743   1.00
C6       0.54485    0.84248    0.80905   1.00
C6       0.45881    0.83427    0.82261   1.00
H2       0.56655    0.85325    0.78845   1.00
H2       0.43690    0.81703    0.83789   1.00
H2       0.52714    0.86835    0.81382   1.00
H2       0.47772    0.84320    0.84646   1.00
C6       0.56394    0.83000    0.84871   1.00
C6       0.44058    0.87154    0.80334   1.00
H2       0.57708    0.80110    0.84561   1.00
H2       0.42617    0.86348    0.77604   1.00
C6       0.59541    0.85782    0.86667   1.00
C6       0.41089    0.89578    0.82820   1.00
H2       0.54051    0.82633    0.87002   1.00
H2       0.46454    0.89077    0.79482   1.00
C6       0.63265    0.85974    0.84100   1.00
C6       0.37292    0.87250    0.83630   1.00
C6       0.57926    0.89962    0.87266   1.00
C6       0.42893    0.90903    0.86747   1.00
C6       0.60755    0.84159    0.90720   1.00
C6       0.39946    0.93289    0.80484   1.00
H2       0.64442    0.83060    0.83569   1.00
H2       0.35980    0.86217    0.80915   1.00
H2       0.62670    0.87315    0.81281   1.00
H2       0.37846    0.84720    0.85471   1.00
H2       0.65541    0.87701    0.85506   1.00
H2       0.35137    0.89054    0.85127   1.00
H2       0.60045    0.91802    0.88773   1.00
H2       0.40902    0.92821    0.88330   1.00
H2       0.57275    0.91343    0.84476   1.00
H2       0.43506    0.88406    0.88620   1.00
H2       0.55255    0.89902    0.88998   1.00
H2       0.45615    0.92481    0.86263   1.00
H2       0.61958    0.81220    0.90456   1.00
H2       0.38617    0.92515    0.77693   1.00
H2       0.62975    0.85993    0.92084   1.00
H2       0.37851    0.95070    0.82093   1.00
H2       0.58261    0.84027    0.92695   1.00
H2       0.42498    0.95099    0.79888   1.00
C4       0.98025    0.75249    0.75410   1.00
C4       1.02191    0.75403    0.75424   1.00
C3       0.95897    0.72328    0.77468   1.00
C3       1.04504    0.72910    0.77817   1.00
C3       0.95854    0.78096    0.73266   1.00
C3       1.04170    0.78141    0.72974   1.00
C2       0.89595    0.75047    0.75540   1.00
C2       1.10622    0.75580    0.75314   1.00
C3       0.91811    0.72236    0.77552   1.00
C3       1.08591    0.72977    0.77754   1.00
C3       0.91696    0.77913    0.73445   1.00
C3       1.08336    0.78100    0.72980   1.00
H1       0.97237    0.70136    0.78951   1.00
H1       1.03306    0.70979    0.79724   1.00
C5       0.97835    0.81009    0.71006   1.00
C5       1.01998    0.80836    0.70622   1.00
H1       0.90451    0.70063    0.79103   1.00
H1       1.10091    0.71093    0.79539   1.00
H1       0.90052    0.79902    0.71981   1.00
H1       1.09848    0.79985    0.71257   1.00
C6       0.95515    0.84248    0.69095   1.00
C6       1.04119    0.83427    0.67739   1.00
H2       0.93345    0.85325    0.71155   1.00
H2       1.06310    0.81703    0.66211   1.00
H2       0.97286    0.86835    0.68618   1.00
H2       1.02228    0.84320    0.65354   1.00
C6       0.93606    0.83000    0.65129   1.00
C6       1.05942    0.87154    0.69666   1.00
H2       0.92292    0.80110    0.65439   1.00
H2       1.07383    0.86348    0.72396   1.00
C6       0.90459    0.85782    0.63333   1.00
C6       1.08911    0.89578    0.67180   1.00
H2       0.95949    0.82633    0.62998   1.00
H2       1.03546    0.89077    0.70518   1.00
C6       0.86735    0.85974    0.65900   1.00
C6       1.12708    0.87250    0.66370   1.00
C6       0.92074    0.89962    0.62734   1.00
C6       1.07107    0.90903    0.63253   1.00
C6       0.89245    0.84159    0.59280   1.00
C6       1.10054    0.93289    0.69516   1.00
H2       0.85558    0.83060    0.66431   1.00
H2       1.14020    0.86217    0.69085   1.00
H2       0.87330    0.87315    0.68719   1.00
H2       1.12154    0.84720    0.64529   1.00
H2       0.84459    0.87701    0.64494   1.00
H2       1.14863    0.89054    0.64873   1.00
H2       0.89955    0.91802    0.61227   1.00
H2       1.09098    0.92821    0.61670   1.00
H2       0.92725    0.91343    0.65524   1.00
H2       1.06494    0.88406    0.61380   1.00
H2       0.94745    0.89902    0.61002   1.00
H2       1.04385    0.92481    0.63737   1.00
H2       0.88042    0.81220    0.59544   1.00
H2       1.11383    0.92515    0.72307   1.00
H2       0.87025    0.85993    0.57916   1.00
H2       1.12149    0.95070    0.67907   1.00
H2       0.91739    0.84027    0.57305   1.00
H2       1.07502    0.95099    0.70112   1.00
C4       0.74590    0.51975    0.75249   1.00
C4       0.74576    0.47809    0.75403   1.00
C3       0.72532    0.54103    0.72328   1.00
C3       0.72183    0.45496    0.72910   1.00
C3       0.76734    0.54146    0.78096   1.00
C3       0.77026    0.45830    0.78141   1.00
C2       0.74460    0.60405    0.75047   1.00
C2       0.74686    0.39378    0.75580   1.00
C3       0.72448    0.58189    0.72236   1.00
C3       0.72246    0.41409    0.72977   1.00
C3       0.76555    0.58304    0.77913   1.00
C3       0.77020    0.41664    0.78100   1.00
H1       0.71049    0.52763    0.70136   1.00
H1       0.70276    0.46694    0.70979   1.00
C5       0.78994    0.52165    0.81009   1.00
C5       0.79378    0.48002    0.80836   1.00
H1       0.70897    0.59549    0.70063   1.00
H1       0.70461    0.39909    0.71093   1.00
H1       0.78019    0.59948    0.79902   1.00
H1       0.78743    0.40152    0.79985   1.00
C6       0.80905    0.54485    0.84248   1.00
C6       0.82261    0.45881    0.83427   1.00
H2       0.78845    0.56655    0.85325   1.00
H2       0.83789    0.43690    0.81703   1.00
H2       0.81382    0.52714    0.86835   1.00
H2       0.84646    0.47772    0.84320   1.00
C6       0.84871    0.56394    0.83000   1.00
C6       0.80334    0.44058    0.87154   1.00
H2       0.84561    0.57708    0.80110   1.00
H2       0.77604    0.42617    0.86348   1.00
C6       0.86667    0.59541    0.85782   1.00
C6       0.82820    0.41089    0.89578   1.00
H2       0.87002    0.54051    0.82633   1.00
H2       0.79482    0.46454    0.89077   1.00
C6       0.84100    0.63265    0.85974   1.00
C6       0.83630    0.37292    0.87250   1.00
C6       0.87266    0.57926    0.89962   1.00
C6       0.86747    0.42893    0.90903   1.00
C6       0.90720    0.60755    0.84159   1.00
C6       0.80484    0.39946    0.93289   1.00
H2       0.83569    0.64442    0.83060   1.00
H2       0.80915    0.35980    0.86217   1.00
H2       0.81281    0.62670    0.87315   1.00
H2       0.85471    0.37846    0.84720   1.00
H2       0.85506    0.65541    0.87701   1.00
H2       0.85127    0.35137    0.89054   1.00
H2       0.88773    0.60045    0.91802   1.00
H2       0.88330    0.40902    0.92821   1.00
H2       0.84476    0.57275    0.91343   1.00
H2       0.88620    0.43506    0.88406   1.00
H2       0.88998    0.55255    0.89902   1.00
H2       0.86263    0.45615    0.92481   1.00
H2       0.90456    0.61958    0.81220   1.00
H2       0.77693    0.38617    0.92515   1.00
H2       0.92084    0.62975    0.85993   1.00
H2       0.82093    0.37851    0.95070   1.00
H2       0.92695    0.58261    0.84027   1.00
H2       0.79888    0.42498    0.95099   1.00
C4       0.75249    0.74590    0.51975   1.00
C4       0.75403    0.74576    0.47809   1.00
C3       0.72328    0.72532    0.54103   1.00
C3       0.72910    0.72183    0.45496   1.00
C3       0.78096    0.76734    0.54146   1.00
C3       0.78141    0.77026    0.45830   1.00
C2       0.75047    0.74460    0.60405   1.00
C2       0.75580    0.74686    0.39378   1.00
C3       0.72236    0.72448    0.58189   1.00
C3       0.72977    0.72246    0.41409   1.00
C3       0.77913    0.76555    0.58304   1.00
C3       0.78100    0.77020    0.41664   1.00
H1       0.70136    0.71049    0.52763   1.00
H1       0.70979    0.70276    0.46694   1.00
C5       0.81009    0.78994    0.52165   1.00
C5       0.80836    0.79378    0.48002   1.00
H1       0.70063    0.70897    0.59549   1.00
H1       0.71093    0.70461    0.39909   1.00
H1       0.79902    0.78019    0.59948   1.00
H1       0.79985    0.78743    0.40152   1.00
C6       0.84248    0.80905    0.54485   1.00
C6       0.83427    0.82261    0.45881   1.00
H2       0.85325    0.78845    0.56655   1.00
H2       0.81703    0.83789    0.43690   1.00
H2       0.86835    0.81382    0.52714   1.00
H2       0.84320    0.84646    0.47772   1.00
C6       0.83000    0.84871    0.56394   1.00
C6       0.87154    0.80334    0.44058   1.00
H2       0.80110    0.84561    0.57708   1.00
H2       0.86348    0.77604    0.42617   1.00
C6       0.85782    0.86667    0.59541   1.00
C6       0.89578    0.82820    0.41089   1.00
H2       0.82633    0.87002    0.54051   1.00
H2       0.89077    0.79482    0.46454   1.00
C6       0.85974    0.84100    0.63265   1.00
C6       0.87250    0.83630    0.37292   1.00
C6       0.89962    0.87266    0.57926   1.00
C6       0.90903    0.86747    0.42893   1.00
C6       0.84159    0.90720    0.60755   1.00
C6       0.93289    0.80484    0.39946   1.00
H2       0.83060    0.83569    0.64442   1.00
H2       0.86217    0.80915    0.35980   1.00
H2       0.87315    0.81281    0.62670   1.00
H2       0.84720    0.85471    0.37846   1.00
H2       0.87701    0.85506    0.65541   1.00
H2       0.89054    0.85127    0.35137   1.00
H2       0.91802    0.88773    0.60045   1.00
H2       0.92821    0.88330    0.40902   1.00
H2       0.91343    0.84476    0.57275   1.00
H2       0.88406    0.88620    0.43506   1.00
H2       0.89902    0.88998    0.55255   1.00
H2       0.92481    0.86263    0.45615   1.00
H2       0.81220    0.90456    0.61958   1.00
H2       0.92515    0.77693    0.38617   1.00
H2       0.85993    0.92084    0.62975   1.00
H2       0.95070    0.82093    0.37851   1.00
H2       0.84027    0.92695    0.58261   1.00
H2       0.95099    0.79888    0.42498   1.00
C4       0.25249    0.25410    0.98025   1.00
C4       0.25403    0.25424    1.02191   1.00
C3       0.22328    0.27468    0.95897   1.00
C3       0.22910    0.27817    1.04504   1.00
C3       0.28096    0.23266    0.95854   1.00
C3       0.28141    0.22974    1.04170   1.00
C2       0.25047    0.25540    0.89595   1.00
C2       0.25580    0.25314    1.10622   1.00
C3       0.22236    0.27552    0.91811   1.00
C3       0.22977    0.27754    1.08591   1.00
C3       0.27913    0.23445    0.91696   1.00
C3       0.28100    0.22980    1.08336   1.00
H1       0.20136    0.28951    0.97237   1.00
H1       0.20979    0.29724    1.03306   1.00
C5       0.31009    0.21006    0.97835   1.00
C5       0.30836    0.20622    1.01998   1.00
H1       0.20063    0.29103    0.90451   1.00
H1       0.21093    0.29539    1.10091   1.00
H1       0.29902    0.21981    0.90052   1.00
H1       0.29985    0.21257    1.09848   1.00
C6       0.34248    0.19095    0.95515   1.00
C6       0.33427    0.17739    1.04119   1.00
H2       0.35325    0.21155    0.93345   1.00
H2       0.31703    0.16211    1.06310   1.00
H2       0.36835    0.18618    0.97286   1.00
H2       0.34320    0.15354    1.02228   1.00
C6       0.33000    0.15129    0.93606   1.00
C6       0.37154    0.19666    1.05942   1.00
H2       0.30110    0.15439    0.92292   1.00
H2       0.36348    0.22396    1.07383   1.00
C6       0.35782    0.13333    0.90459   1.00
C6       0.39578    0.17180    1.08911   1.00
H2       0.32633    0.12998    0.95949   1.00
H2       0.39077    0.20518    1.03546   1.00
C6       0.35974    0.15900    0.86735   1.00
C6       0.37250    0.16370    1.12708   1.00
C6       0.39962    0.12734    0.92074   1.00
C6       0.40903    0.13253    1.07107   1.00
C6       0.34159    0.09280    0.89245   1.00
C6       0.43289    0.19516    1.10054   1.00
H2       0.33060    0.16431    0.85558   1.00
H2       0.36217    0.19085    1.14020   1.00
H2       0.37315    0.18719    0.87330   1.00
H2       0.34720    0.14529    1.12154   1.00
H2       0.37701    0.14494    0.84459   1.00
H2       0.39054    0.14873    1.14863   1.00
H2       0.41802    0.11227    0.89955   1.00
H2       0.42821    0.11670    1.09098   1.00
H2       0.41343    0.15524    0.92725   1.00
H2       0.38406    0.11380    1.06494   1.00
H2       0.39902    0.11002    0.94745   1.00
H2       0.42481    0.13737    1.04385   1.00
H2       0.31220    0.09544    0.88042   1.00
H2       0.42515    0.22307    1.11383   1.00
H2       0.35993    0.07916    0.87025   1.00
H2       0.45070    0.17907    1.12149   1.00
H2       0.34027    0.07305    0.91739   1.00
H2       0.45099    0.20112    1.07502   1.00
C4       0.25410    0.48025    0.75249   1.00
C4       0.25424    0.52191    0.75403   1.00
C3       0.27468    0.45897    0.72328   1.00
C3       0.27817    0.54504    0.72910   1.00
C3       0.23266    0.45854    0.78096   1.00
C3       0.22974    0.54170    0.78141   1.00
C2       0.25540    0.39595    0.75047   1.00
C2       0.25314    0.60622    0.75580   1.00
C3       0.27552    0.41811    0.72236   1.00
C3       0.27754    0.58591    0.72977   1.00
C3       0.23445    0.41696    0.77913   1.00
C3       0.22980    0.58336    0.78100   1.00
H1       0.28951    0.47237    0.70136   1.00
H1       0.29724    0.53306    0.70979   1.00
C5       0.21006    0.47835    0.81009   1.00
C5       0.20622    0.51998    0.80836   1.00
H1       0.29103    0.40451    0.70063   1.00
H1       0.29539    0.60091    0.71093   1.00
H1       0.21981    0.40052    0.79902   1.00
H1       0.21257    0.59848    0.79985   1.00
C6       0.19095    0.45515    0.84248   1.00
C6       0.17739    0.54119    0.83427   1.00
H2       0.21155    0.43345    0.85325   1.00
H2       0.16211    0.56310    0.81703   1.00
H2       0.18618    0.47286    0.86835   1.00
H2       0.15354    0.52228    0.84320   1.00
C6       0.15129    0.43606    0.83000   1.00
C6       0.19666    0.55942    0.87154   1.00
H2       0.15439    0.42292    0.80110   1.00
H2       0.22396    0.57383    0.86348   1.00
C6       0.13333    0.40459    0.85782   1.00
C6       0.17180    0.58911    0.89578   1.00
H2       0.12998    0.45949    0.82633   1.00
H2       0.20518    0.53546    0.89077   1.00
C6       0.15900    0.36735    0.85974   1.00
C6       0.16370    0.62708    0.87250   1.00
C6       0.12734    0.42074    0.89962   1.00
C6       0.13253    0.57107    0.90903   1.00
C6       0.09280    0.39245    0.84159   1.00
C6       0.19516    0.60054    0.93289   1.00
H2       0.16431    0.35558    0.83060   1.00
H2       0.19085    0.64020    0.86217   1.00
H2       0.18719    0.37330    0.87315   1.00
H2       0.14529    0.62154    0.84720   1.00
H2       0.14494    0.34459    0.87701   1.00
H2       0.14873    0.64863    0.89054   1.00
H2       0.11227    0.39955    0.91802   1.00
H2       0.11670    0.59098    0.92821   1.00
H2       0.15524    0.42725    0.91343   1.00
H2       0.11380    0.56494    0.88406   1.00
H2       0.11002    0.44745    0.89902   1.00
H2       0.13737    0.54385    0.92481   1.00
H2       0.09544    0.38042    0.81220   1.00
H2       0.22307    0.61383    0.92515   1.00
H2       0.07916    0.37025    0.85993   1.00
H2       0.17907    0.62149    0.95070   1.00
H2       0.07305    0.41739    0.84027   1.00
H2       0.20112    0.57502    0.95099   1.00
C4       0.01975    0.25249    0.74590   1.00
C4       -0.02191   0.25403    0.74576   1.00
C3       0.04103    0.22328    0.72532   1.00
C3       -0.04504   0.22910    0.72183   1.00
C3       0.04146    0.28096    0.76734   1.00
C3       -0.04170   0.28141    0.77026   1.00
C2       0.10405    0.25047    0.74460   1.00
C2       -0.10622   0.25580    0.74686   1.00
C3       0.08189    0.22236    0.72448   1.00
C3       -0.08591   0.22977    0.72246   1.00
C3       0.08304    0.27913    0.76555   1.00
C3       -0.08336   0.28100    0.77020   1.00
H1       0.02763    0.20136    0.71049   1.00
H1       -0.03306   0.20979    0.70276   1.00
C5       0.02165    0.31009    0.78994   1.00
C5       -0.01998   0.30836    0.79378   1.00
H1       0.09549    0.20063    0.70897   1.00
H1       -0.10091   0.21093    0.70461   1.00
H1       0.09948    0.29902    0.78019   1.00
H1       -0.09848   0.29985    0.78743   1.00
C6       0.04485    0.34248    0.80905   1.00
C6       -0.04119   0.33427    0.82261   1.00
H2       0.06655    0.35325    0.78845   1.00
H2       -0.06310   0.31703    0.83789   1.00
H2       0.02714    0.36835    0.81382   1.00
H2       -0.02228   0.34320    0.84646   1.00
C6       0.06394    0.33000    0.84871   1.00
C6       -0.05942   0.37154    0.80334   1.00
H2       0.07708    0.30110    0.84561   1.00
H2       -0.07383   0.36348    0.77604   1.00
C6       0.09541    0.35782    0.86667   1.00
C6       -0.08911   0.39578    0.82820   1.00
H2       0.04051    0.32633    0.87002   1.00
H2       -0.03546   0.39077    0.79482   1.00
C6       0.13265    0.35974    0.84100   1.00
C6       -0.12708   0.37250    0.83630   1.00
C6       0.07926    0.39962    0.87266   1.00
C6       -0.07107   0.40903    0.86747   1.00
C6       0.10755    0.34159    0.90720   1.00
C6       -0.10054   0.43289    0.80484   1.00
H2       0.14442    0.33060    0.83569   1.00
H2       -0.14020   0.36217    0.80915   1.00
H2       0.12670    0.37315    0.81281   1.00
H2       -0.12154   0.34720    0.85471   1.00
H2       0.15541    0.37701    0.85506   1.00
H2       -0.14863   0.39054    0.85127   1.00
H2       0.10045    0.41802    0.88773   1.00
H2       -0.09098   0.42821    0.88330   1.00
H2       0.07275    0.41343    0.84476   1.00
H2       -0.06494   0.38406    0.88620   1.00
H2       0.05255    0.39902    0.88998   1.00
H2       -0.04385   0.42481    0.86263   1.00
H2       0.11958    0.31220    0.90456   1.00
H2       -0.11383   0.42515    0.77693   1.00
H2       0.12975    0.35993    0.92084   1.00
H2       -0.12149   0.45070    0.82093   1.00
H2       0.08261    0.34027    0.92695   1.00
H2       -0.07502   0.45099    0.79888   1.00
C4       0.48025    0.25249    0.75410   1.00
C4       0.52191    0.25403    0.75424   1.00
C3       0.45897    0.22328    0.77468   1.00
C3       0.54504    0.22910    0.77817   1.00
C3       0.45854    0.28096    0.73266   1.00
C3       0.54170    0.28141    0.72974   1.00
C2       0.39595    0.25047    0.75540   1.00
C2       0.60622    0.25580    0.75314   1.00
C3       0.41811    0.22236    0.77552   1.00
C3       0.58591    0.22977    0.77754   1.00
C3       0.41696    0.27913    0.73445   1.00
C3       0.58336    0.28100    0.72980   1.00
H1       0.47237    0.20136    0.78951   1.00
H1       0.53306    0.20979    0.79724   1.00
C5       0.47835    0.31009    0.71006   1.00
C5       0.51998    0.30836    0.70622   1.00
H1       0.40451    0.20063    0.79103   1.00
H1       0.60091    0.21093    0.79539   1.00
H1       0.40052    0.29902    0.71981   1.00
H1       0.59848    0.29985    0.71257   1.00
C6       0.45515    0.34248    0.69095   1.00
C6       0.54119    0.33427    0.67739   1.00
H2       0.43345    0.35325    0.71155   1.00
H2       0.56310    0.31703    0.66211   1.00
H2       0.47286    0.36835    0.68618   1.00
H2       0.52228    0.34320    0.65354   1.00
C6       0.43606    0.33000    0.65129   1.00
C6       0.55942    0.37154    0.69666   1.00
H2       0.42292    0.30110    0.65439   1.00
H2       0.57383    0.36348    0.72396   1.00
C6       0.40459    0.35782    0.63333   1.00
C6       0.58911    0.39578    0.67180   1.00
H2       0.45949    0.32633    0.62998   1.00
H2       0.53546    0.39077    0.70518   1.00
C6       0.36735    0.35974    0.65900   1.00
C6       0.62708    0.37250    0.66370   1.00
C6       0.42074    0.39962    0.62734   1.00
C6       0.57107    0.40903    0.63253   1.00
C6       0.39245    0.34159    0.59280   1.00
C6       0.60054    0.43289    0.69516   1.00
H2       0.35558    0.33060    0.66431   1.00
H2       0.64020    0.36217    0.69085   1.00
H2       0.37330    0.37315    0.68719   1.00
H2       0.62154    0.34720    0.64529   1.00
H2       0.34459    0.37701    0.64494   1.00
H2       0.64863    0.39054    0.64873   1.00
H2       0.39955    0.41802    0.61227   1.00
H2       0.59098    0.42821    0.61670   1.00
H2       0.42725    0.41343    0.65524   1.00
H2       0.56494    0.38406    0.61380   1.00
H2       0.44745    0.39902    0.61002   1.00
H2       0.54385    0.42481    0.63737   1.00
H2       0.38042    0.31220    0.59544   1.00
H2       0.61383    0.42515    0.72307   1.00
H2       0.37025    0.35993    0.57916   1.00
H2       0.62149    0.45070    0.67907   1.00
H2       0.41739    0.34027    0.57305   1.00
H2       0.57502    0.45099    0.70112   1.00
C4       0.24590    0.01975    0.75249   1.00
C4       0.24576    -0.02191   0.75403   1.00
C3       0.22532    0.04103    0.72328   1.00
C3       0.22183    -0.04504   0.72910   1.00
C3       0.26734    0.04146    0.78096   1.00
C3       0.27026    -0.04170   0.78141   1.00
C2       0.24460    0.10405    0.75047   1.00
C2       0.24686    -0.10622   0.75580   1.00
C3       0.22448    0.08189    0.72236   1.00
C3       0.22246    -0.08591   0.72977   1.00
C3       0.26555    0.08304    0.77913   1.00
C3       0.27020    -0.08336   0.78100   1.00
H1       0.21049    0.02763    0.70136   1.00
H1       0.20276    -0.03306   0.70979   1.00
C5       0.28994    0.02165    0.81009   1.00
C5       0.29378    -0.01998   0.80836   1.00
H1       0.20897    0.09549    0.70063   1.00
H1       0.20461    -0.10091   0.71093   1.00
H1       0.28019    0.09948    0.79902   1.00
H1       0.28743    -0.09848   0.79985   1.00
C6       0.30905    0.04485    0.84248   1.00
C6       0.32261    -0.04119   0.83427   1.00
H2       0.28845    0.06655    0.85325   1.00
H2       0.33789    -0.06310   0.81703   1.00
H2       0.31382    0.02714    0.86835   1.00
H2       0.34646    -0.02228   0.84320   1.00
C6       0.34871    0.06394    0.83000   1.00
C6       0.30334    -0.05942   0.87154   1.00
H2       0.34561    0.07708    0.80110   1.00
H2       0.27604    -0.07383   0.86348   1.00
C6       0.36667    0.09541    0.85782   1.00
C6       0.32820    -0.08911   0.89578   1.00
H2       0.37002    0.04051    0.82633   1.00
H2       0.29482    -0.03546   0.89077   1.00
C6       0.34100    0.13265    0.85974   1.00
C6       0.33630    -0.12708   0.87250   1.00
C6       0.37266    0.07926    0.89962   1.00
C6       0.36747    -0.07107   0.90903   1.00
C6       0.40720    0.10755    0.84159   1.00
C6       0.30484    -0.10054   0.93289   1.00
H2       0.33569    0.14442    0.83060   1.00
H2       0.30915    -0.14020   0.86217   1.00
H2       0.31281    0.12670    0.87315   1.00
H2       0.35471    -0.12154   0.84720   1.00
H2       0.35506    0.15541    0.87701   1.00
H2       0.35127    -0.14863   0.89054   1.00
H2       0.38773    0.10045    0.91802   1.00
H2       0.38330    -0.09098   0.92821   1.00
H2       0.34476    0.07275    0.91343   1.00
H2       0.38620    -0.06494   0.88406   1.00
H2       0.38998    0.05255    0.89902   1.00
H2       0.36263    -0.04385   0.92481   1.00
H2       0.40456    0.11958    0.81220   1.00
H2       0.27693    -0.11383   0.92515   1.00
H2       0.42084    0.12975    0.85993   1.00
H2       0.32093    -0.12149   0.95070   1.00
H2       0.42695    0.08261    0.84027   1.00
H2       0.29888    -0.07502   0.95099   1.00
C4       0.25249    0.24590    0.51975   1.00
C4       0.25403    0.24576    0.47809   1.00
C3       0.22328    0.22532    0.54103   1.00
C3       0.22910    0.22183    0.45496   1.00
C3       0.28096    0.26734    0.54146   1.00
C3       0.28141    0.27026    0.45830   1.00
C2       0.25047    0.24460    0.60405   1.00
C2       0.25580    0.24686    0.39378   1.00
C3       0.22236    0.22448    0.58189   1.00
C3       0.22977    0.22246    0.41409   1.00
C3       0.27913    0.26555    0.58304   1.00
C3       0.28100    0.27020    0.41664   1.00
H1       0.20136    0.21049    0.52763   1.00
H1       0.20979    0.20276    0.46694   1.00
C5       0.31009    0.28994    0.52165   1.00
C5       0.30836    0.29378    0.48002   1.00
H1       0.20063    0.20897    0.59549   1.00
H1       0.21093    0.20461    0.39909   1.00
H1       0.29902    0.28019    0.59948   1.00
H1       0.29985    0.28743    0.40152   1.00
C6       0.34248    0.30905    0.54485   1.00
C6       0.33427    0.32261    0.45881   1.00
H2       0.35325    0.28845    0.56655   1.00
H2       0.31703    0.33789    0.43690   1.00
H2       0.36835    0.31382    0.52714   1.00
H2       0.34320    0.34646    0.47772   1.00
C6       0.33000    0.34871    0.56394   1.00
C6       0.37154    0.30334    0.44058   1.00
H2       0.30110    0.34561    0.57708   1.00
H2       0.36348    0.27604    0.42617   1.00
C6       0.35782    0.36667    0.59541   1.00
C6       0.39578    0.32820    0.41089   1.00
H2       0.32633    0.37002    0.54051   1.00
H2       0.39077    0.29482    0.46454   1.00
C6       0.35974    0.34100    0.63265   1.00
C6       0.37250    0.33630    0.37292   1.00
C6       0.39962    0.37266    0.57926   1.00
C6       0.40903    0.36747    0.42893   1.00
C6       0.34159    0.40720    0.60755   1.00
C6       0.43289    0.30484    0.39946   1.00
H2       0.33060    0.33569    0.64442   1.00
H2       0.36217    0.30915    0.35980   1.00
H2       0.37315    0.31281    0.62670   1.00
H2       0.34720    0.35471    0.37846   1.00
H2       0.37701    0.35506    0.65541   1.00
H2       0.39054    0.35127    0.35137   1.00
H2       0.41802    0.38773    0.60045   1.00
H2       0.42821    0.38330    0.40902   1.00
H2       0.41343    0.34476    0.57275   1.00
H2       0.38406    0.38620    0.43506   1.00
H2       0.39902    0.38998    0.55255   1.00
H2       0.42481    0.36263    0.45615   1.00
H2       0.31220    0.40456    0.61958   1.00
H2       0.42515    0.27693    0.38617   1.00
H2       0.35993    0.42084    0.62975   1.00
H2       0.45070    0.32093    0.37851   1.00
H2       0.34027    0.42695    0.58261   1.00
H2       0.45099    0.29888    0.42498   1.00
C4       0.25249    0.75410    0.48025   1.00
C4       0.25403    0.75424    0.52191   1.00
C3       0.22328    0.77468    0.45897   1.00
C3       0.22910    0.77817    0.54504   1.00
C3       0.28096    0.73266    0.45854   1.00
C3       0.28141    0.72974    0.54170   1.00
C2       0.25047    0.75540    0.39595   1.00
C2       0.25580    0.75314    0.60622   1.00
C3       0.22236    0.77552    0.41811   1.00
C3       0.22977    0.77754    0.58591   1.00
C3       0.27913    0.73445    0.41696   1.00
C3       0.28100    0.72980    0.58336   1.00
H1       0.20136    0.78951    0.47237   1.00
H1       0.20979    0.79724    0.53306   1.00
C5       0.31009    0.71006    0.47835   1.00
C5       0.30836    0.70622    0.51998   1.00
H1       0.20063    0.79103    0.40451   1.00
H1       0.21093    0.79539    0.60091   1.00
H1       0.29902    0.71981    0.40052   1.00
H1       0.29985    0.71257    0.59848   1.00
C6       0.34248    0.69095    0.45515   1.00
C6       0.33427    0.67739    0.54119   1.00
H2       0.35325    0.71155    0.43345   1.00
H2       0.31703    0.66211    0.56310   1.00
H2       0.36835    0.68618    0.47286   1.00
H2       0.34320    0.65354    0.52228   1.00
C6       0.33000    0.65129    0.43606   1.00
C6       0.37154    0.69666    0.55942   1.00
H2       0.30110    0.65439    0.42292   1.00
H2       0.36348    0.72396    0.57383   1.00
C6       0.35782    0.63333    0.40459   1.00
C6       0.39578    0.67180    0.58911   1.00
H2       0.32633    0.62998    0.45949   1.00
H2       0.39077    0.70518    0.53546   1.00
C6       0.35974    0.65900    0.36735   1.00
C6       0.37250    0.66370    0.62708   1.00
C6       0.39962    0.62734    0.42074   1.00
C6       0.40903    0.63253    0.57107   1.00
C6       0.34159    0.59280    0.39245   1.00
C6       0.43289    0.69516    0.60054   1.00
H2       0.33060    0.66431    0.35558   1.00
H2       0.36217    0.69085    0.64020   1.00
H2       0.37315    0.68719    0.37330   1.00
H2       0.34720    0.64529    0.62154   1.00
H2       0.37701    0.64494    0.34459   1.00
H2       0.39054    0.64873    0.64863   1.00
H2       0.41802    0.61227    0.39955   1.00
H2       0.42821    0.61670    0.59098   1.00
H2       0.41343    0.65524    0.42725   1.00
H2       0.38406    0.61380    0.56494   1.00
H2       0.39902    0.61002    0.44745   1.00
H2       0.42481    0.63737    0.54385   1.00
H2       0.31220    0.59544    0.38042   1.00
H2       0.42515    0.72307    0.61383   1.00
H2       0.35993    0.57916    0.37025   1.00
H2       0.45070    0.67907    0.62149   1.00
H2       0.34027    0.57305    0.41739   1.00
H2       0.45099    0.70112    0.57502   1.00
C4       0.25410    0.98025    0.25249   1.00
C4       0.25424    1.02191    0.25403   1.00
C3       0.27468    0.95897    0.22328   1.00
C3       0.27817    1.04504    0.22910   1.00
C3       0.23266    0.95854    0.28096   1.00
C3       0.22974    1.04170    0.28141   1.00
C2       0.25540    0.89595    0.25047   1.00
C2       0.25314    1.10622    0.25580   1.00
C3       0.27552    0.91811    0.22236   1.00
C3       0.27754    1.08591    0.22977   1.00
C3       0.23445    0.91696    0.27913   1.00
C3       0.22980    1.08336    0.28100   1.00
H1       0.28951    0.97237    0.20136   1.00
H1       0.29724    1.03306    0.20979   1.00
C5       0.21006    0.97835    0.31009   1.00
C5       0.20622    1.01998    0.30836   1.00
H1       0.29103    0.90451    0.20063   1.00
H1       0.29539    1.10091    0.21093   1.00
H1       0.21981    0.90052    0.29902   1.00
H1       0.21257    1.09848    0.29985   1.00
C6       0.19095    0.95515    0.34248   1.00
C6       0.17739    1.04119    0.33427   1.00
H2       0.21155    0.93345    0.35325   1.00
H2       0.16211    1.06310    0.31703   1.00
H2       0.18618    0.97286    0.36835   1.00
H2       0.15354    1.02228    0.34320   1.00
C6       0.15129    0.93606    0.33000   1.00
C6       0.19666    1.05942    0.37154   1.00
H2       0.15439    0.92292    0.30110   1.00
H2       0.22396    1.07383    0.36348   1.00
C6       0.13333    0.90459    0.35782   1.00
C6       0.17180    1.08911    0.39578   1.00
H2       0.12998    0.95949    0.32633   1.00
H2       0.20518    1.03546    0.39077   1.00
C6       0.15900    0.86735    0.35974   1.00
C6       0.16370    1.12708    0.37250   1.00
C6       0.12734    0.92074    0.39962   1.00
C6       0.13253    1.07107    0.40903   1.00
C6       0.09280    0.89245    0.34159   1.00
C6       0.19516    1.10054    0.43289   1.00
H2       0.16431    0.85558    0.33060   1.00
H2       0.19085    1.14020    0.36217   1.00
H2       0.18719    0.87330    0.37315   1.00
H2       0.14529    1.12154    0.34720   1.00
H2       0.14494    0.84459    0.37701   1.00
H2       0.14873    1.14863    0.39054   1.00
H2       0.11227    0.89955    0.41802   1.00
H2       0.11670    1.09098    0.42821   1.00
H2       0.15524    0.92725    0.41343   1.00
H2       0.11380    1.06494    0.38406   1.00
H2       0.11002    0.94745    0.39902   1.00
H2       0.13737    1.04385    0.42481   1.00
H2       0.09544    0.88042    0.31220   1.00
H2       0.22307    1.11383    0.42515   1.00
H2       0.07916    0.87025    0.35993   1.00
H2       0.17907    1.12149    0.45070   1.00
H2       0.07305    0.91739    0.34027   1.00
H2       0.20112    1.07502    0.45099   1.00
C4       0.01975    0.75249    0.24590   1.00
C4       -0.02191   0.75403    0.24576   1.00
C3       0.04103    0.72328    0.22532   1.00
C3       -0.04504   0.72910    0.22183   1.00
C3       0.04146    0.78096    0.26734   1.00
C3       -0.04170   0.78141    0.27026   1.00
C2       0.10405    0.75047    0.24460   1.00
C2       -0.10622   0.75580    0.24686   1.00
C3       0.08189    0.72236    0.22448   1.00
C3       -0.08591   0.72977    0.22246   1.00
C3       0.08304    0.77913    0.26555   1.00
C3       -0.08336   0.78100    0.27020   1.00
H1       0.02763    0.70136    0.21049   1.00
H1       -0.03306   0.70979    0.20276   1.00
C5       0.02165    0.81009    0.28994   1.00
C5       -0.01998   0.80836    0.29378   1.00
H1       0.09549    0.70063    0.20897   1.00
H1       -0.10091   0.71093    0.20461   1.00
H1       0.09948    0.79902    0.28019   1.00
H1       -0.09848   0.79985    0.28743   1.00
C6       0.04485    0.84248    0.30905   1.00
C6       -0.04119   0.83427    0.32261   1.00
H2       0.06655    0.85325    0.28845   1.00
H2       -0.06310   0.81703    0.33789   1.00
H2       0.02714    0.86835    0.31382   1.00
H2       -0.02228   0.84320    0.34646   1.00
C6       0.06394    0.83000    0.34871   1.00
C6       -0.05942   0.87154    0.30334   1.00
H2       0.07708    0.80110    0.34561   1.00
H2       -0.07383   0.86348    0.27604   1.00
C6       0.09541    0.85782    0.36667   1.00
C6       -0.08911   0.89578    0.32820   1.00
H2       0.04051    0.82633    0.37002   1.00
H2       -0.03546   0.89077    0.29482   1.00
C6       0.13265    0.85974    0.34100   1.00
C6       -0.12708   0.87250    0.33630   1.00
C6       0.07926    0.89962    0.37266   1.00
C6       -0.07107   0.90903    0.36747   1.00
C6       0.10755    0.84159    0.40720   1.00
C6       -0.10054   0.93289    0.30484   1.00
H2       0.14442    0.83060    0.33569   1.00
H2       -0.14020   0.86217    0.30915   1.00
H2       0.12670    0.87315    0.31281   1.00
H2       -0.12154   0.84720    0.35471   1.00
H2       0.15541    0.87701    0.35506   1.00
H2       -0.14863   0.89054    0.35127   1.00
H2       0.10045    0.91802    0.38773   1.00
H2       -0.09098   0.92821    0.38330   1.00
H2       0.07275    0.91343    0.34476   1.00
H2       -0.06494   0.88406    0.38620   1.00
H2       0.05255    0.89902    0.38998   1.00
H2       -0.04385   0.92481    0.36263   1.00
H2       0.11958    0.81220    0.40456   1.00
H2       -0.11383   0.92515    0.27693   1.00
H2       0.12975    0.85993    0.42084   1.00
H2       -0.12149   0.95070    0.32093   1.00
H2       0.08261    0.84027    0.42695   1.00
H2       -0.07502   0.95099    0.29888   1.00
C4       0.48025    0.75249    0.25410   1.00
C4       0.52191    0.75403    0.25424   1.00
C3       0.45897    0.72328    0.27468   1.00
C3       0.54504    0.72910    0.27817   1.00
C3       0.45854    0.78096    0.23266   1.00
C3       0.54170    0.78141    0.22974   1.00
C2       0.39595    0.75047    0.25540   1.00
C2       0.60622    0.75580    0.25314   1.00
C3       0.41811    0.72236    0.27552   1.00
C3       0.58591    0.72977    0.27754   1.00
C3       0.41696    0.77913    0.23445   1.00
C3       0.58336    0.78100    0.22980   1.00
H1       0.47237    0.70136    0.28951   1.00
H1       0.53306    0.70979    0.29724   1.00
C5       0.47835    0.81009    0.21006   1.00
C5       0.51998    0.80836    0.20622   1.00
H1       0.40451    0.70063    0.29103   1.00
H1       0.60091    0.71093    0.29539   1.00
H1       0.40052    0.79902    0.21981   1.00
H1       0.59848    0.79985    0.21257   1.00
C6       0.45515    0.84248    0.19095   1.00
C6       0.54119    0.83427    0.17739   1.00
H2       0.43345    0.85325    0.21155   1.00
H2       0.56310    0.81703    0.16211   1.00
H2       0.47286    0.86835    0.18618   1.00
H2       0.52228    0.84320    0.15354   1.00
C6       0.43606    0.83000    0.15129   1.00
C6       0.55942    0.87154    0.19666   1.00
H2       0.42292    0.80110    0.15439   1.00
H2       0.57383    0.86348    0.22396   1.00
C6       0.40459    0.85782    0.13333   1.00
C6       0.58911    0.89578    0.17180   1.00
H2       0.45949    0.82633    0.12998   1.00
H2       0.53546    0.89077    0.20518   1.00
C6       0.36735    0.85974    0.15900   1.00
C6       0.62708    0.87250    0.16370   1.00
C6       0.42074    0.89962    0.12734   1.00
C6       0.57107    0.90903    0.13253   1.00
C6       0.39245    0.84159    0.09280   1.00
C6       0.60054    0.93289    0.19516   1.00
H2       0.35558    0.83060    0.16431   1.00
H2       0.64020    0.86217    0.19085   1.00
H2       0.37330    0.87315    0.18719   1.00
H2       0.62154    0.84720    0.14529   1.00
H2       0.34459    0.87701    0.14494   1.00
H2       0.64863    0.89054    0.14873   1.00
H2       0.39955    0.91802    0.11227   1.00
H2       0.59098    0.92821    0.11670   1.00
H2       0.42725    0.91343    0.15524   1.00
H2       0.56494    0.88406    0.11380   1.00
H2       0.44745    0.89902    0.11002   1.00
H2       0.54385    0.92481    0.13737   1.00
H2       0.38042    0.81220    0.09544   1.00
H2       0.61383    0.92515    0.22307   1.00
H2       0.37025    0.85993    0.07916   1.00
H2       0.62149    0.95070    0.17907   1.00
H2       0.41739    0.84027    0.07305   1.00
H2       0.57502    0.95099    0.20112   1.00
C4       0.24590    0.51975    0.25249   1.00
C4       0.24576    0.47809    0.25403   1.00
C3       0.22532    0.54103    0.22328   1.00
C3       0.22183    0.45496    0.22910   1.00
C3       0.26734    0.54146    0.28096   1.00
C3       0.27026    0.45830    0.28141   1.00
C2       0.24460    0.60405    0.25047   1.00
C2       0.24686    0.39378    0.25580   1.00
C3       0.22448    0.58189    0.22236   1.00
C3       0.22246    0.41409    0.22977   1.00
C3       0.26555    0.58304    0.27913   1.00
C3       0.27020    0.41664    0.28100   1.00
H1       0.21049    0.52763    0.20136   1.00
H1       0.20276    0.46694    0.20979   1.00
C5       0.28994    0.52165    0.31009   1.00
C5       0.29378    0.48002    0.30836   1.00
H1       0.20897    0.59549    0.20063   1.00
H1       0.20461    0.39909    0.21093   1.00
H1       0.28019    0.59948    0.29902   1.00
H1       0.28743    0.40152    0.29985   1.00
C6       0.30905    0.54485    0.34248   1.00
C6       0.32261    0.45881    0.33427   1.00
H2       0.28845    0.56655    0.35325   1.00
H2       0.33789    0.43690    0.31703   1.00
H2       0.31382    0.52714    0.36835   1.00
H2       0.34646    0.47772    0.34320   1.00
C6       0.34871    0.56394    0.33000   1.00
C6       0.30334    0.44058    0.37154   1.00
H2       0.34561    0.57708    0.30110   1.00
H2       0.27604    0.42617    0.36348   1.00
C6       0.36667    0.59541    0.35782   1.00
C6       0.32820    0.41089    0.39578   1.00
H2       0.37002    0.54051    0.32633   1.00
H2       0.29482    0.46454    0.39077   1.00
C6       0.34100    0.63265    0.35974   1.00
C6       0.33630    0.37292    0.37250   1.00
C6       0.37266    0.57926    0.39962   1.00
C6       0.36747    0.42893    0.40903   1.00
C6       0.40720    0.60755    0.34159   1.00
C6       0.30484    0.39946    0.43289   1.00
H2       0.33569    0.64442    0.33060   1.00
H2       0.30915    0.35980    0.36217   1.00
H2       0.31281    0.62670    0.37315   1.00
H2       0.35471    0.37846    0.34720   1.00
H2       0.35506    0.65541    0.37701   1.00
H2       0.35127    0.35137    0.39054   1.00
H2       0.38773    0.60045    0.41802   1.00
H2       0.38330    0.40902    0.42821   1.00
H2       0.34476    0.57275    0.41343   1.00
H2       0.38620    0.43506    0.38406   1.00
H2       0.38998    0.55255    0.39902   1.00
H2       0.36263    0.45615    0.42481   1.00
H2       0.40456    0.61958    0.31220   1.00
H2       0.27693    0.38617    0.42515   1.00
H2       0.42084    0.62975    0.35993   1.00
H2       0.32093    0.37851    0.45070   1.00
H2       0.42695    0.58261    0.34027   1.00
H2       0.29888    0.42498    0.45099   1.00
C4       0.25249    0.74590    0.01975   1.00
C4       0.25403    0.74576    -0.02191   1.00
C3       0.22328    0.72532    0.04103   1.00
C3       0.22910    0.72183    -0.04504   1.00
C3       0.28096    0.76734    0.04146   1.00
C3       0.28141    0.77026    -0.04170   1.00
C2       0.25047    0.74460    0.10405   1.00
C2       0.25580    0.74686    -0.10622   1.00
C3       0.22236    0.72448    0.08189   1.00
C3       0.22977    0.72246    -0.08591   1.00
C3       0.27913    0.76555    0.08304   1.00
C3       0.28100    0.77020    -0.08336   1.00
H1       0.20136    0.71049    0.02763   1.00
H1       0.20979    0.70276    -0.03306   1.00
C5       0.31009    0.78994    0.02165   1.00
C5       0.30836    0.79378    -0.01998   1.00
H1       0.20063    0.70897    0.09549   1.00
H1       0.21093    0.70461    -0.10091   1.00
H1       0.29902    0.78019    0.09948   1.00
H1       0.29985    0.78743    -0.09848   1.00
C6       0.34248    0.80905    0.04485   1.00
C6       0.33427    0.82261    -0.04119   1.00
H2       0.35325    0.78845    0.06655   1.00
H2       0.31703    0.83789    -0.06310   1.00
H2       0.36835    0.81382    0.02714   1.00
H2       0.34320    0.84646    -0.02228   1.00
C6       0.33000    0.84871    0.06394   1.00
C6       0.37154    0.80334    -0.05942   1.00
H2       0.30110    0.84561    0.07708   1.00
H2       0.36348    0.77604    -0.07383   1.00
C6       0.35782    0.86667    0.09541   1.00
C6       0.39578    0.82820    -0.08911   1.00
H2       0.32633    0.87002    0.04051   1.00
H2       0.39077    0.79482    -0.03546   1.00
C6       0.35974    0.84100    0.13265   1.00
C6       0.37250    0.83630    -0.12708   1.00
C6       0.39962    0.87266    0.07926   1.00
C6       0.40903    0.86747    -0.07107   1.00
C6       0.34159    0.90720    0.10755   1.00
C6       0.43289    0.80484    -0.10054   1.00
H2       0.33060    0.83569    0.14442   1.00
H2       0.36217    0.80915    -0.14020   1.00
H2       0.37315    0.81281    0.12670   1.00
H2       0.34720    0.85471    -0.12154   1.00
H2       0.37701    0.85506    0.15541   1.00
H2       0.39054    0.85127    -0.14863   1.00
H2       0.41802    0.88773    0.10045   1.00
H2       0.42821    0.88330    -0.09098   1.00
H2       0.41343    0.84476    0.07275   1.00
H2       0.38406    0.88620    -0.06494   1.00
H2       0.39902    0.88998    0.05255   1.00
H2       0.42481    0.86263    -0.04385   1.00
H2       0.31220    0.90456    0.11958   1.00
H2       0.42515    0.77693    -0.11383   1.00
H2       0.35993    0.92084    0.12975   1.00
H2       0.45070    0.82093    -0.12149   1.00
H2       0.34027    0.92695    0.08261   1.00
H2       0.45099    0.79888    -0.07502   1.00
C4       0.75249    0.25410    0.48025   1.00
C4       0.75403    0.25424    0.52191   1.00
C3       0.72328    0.27468    0.45897   1.00
C3       0.72910    0.27817    0.54504   1.00
C3       0.78096    0.23266    0.45854   1.00
C3       0.78141    0.22974    0.54170   1.00
C2       0.75047    0.25540    0.39595   1.00
C2       0.75580    0.25314    0.60622   1.00
C3       0.72236    0.27552    0.41811   1.00
C3       0.72977    0.27754    0.58591   1.00
C3       0.77913    0.23445    0.41696   1.00
C3       0.78100    0.22980    0.58336   1.00
H1       0.70136    0.28951    0.47237   1.00
H1       0.70979    0.29724    0.53306   1.00
C5       0.81009    0.21006    0.47835   1.00
C5       0.80836    0.20622    0.51998   1.00
H1       0.70063    0.29103    0.40451   1.00
H1       0.71093    0.29539    0.60091   1.00
H1       0.79902    0.21981    0.40052   1.00
H1       0.79985    0.21257    0.59848   1.00
C6       0.84248    0.19095    0.45515   1.00
C6       0.83427    0.17739    0.54119   1.00
H2       0.85325    0.21155    0.43345   1.00
H2       0.81703    0.16211    0.56310   1.00
H2       0.86835    0.18618    0.47286   1.00
H2       0.84320    0.15354    0.52228   1.00
C6       0.83000    0.15129    0.43606   1.00
C6       0.87154    0.19666    0.55942   1.00
H2       0.80110    0.15439    0.42292   1.00
H2       0.86348    0.22396    0.57383   1.00
C6       0.85782    0.13333    0.40459   1.00
C6       0.89578    0.17180    0.58911   1.00
H2       0.82633    0.12998    0.45949   1.00
H2       0.89077    0.20518    0.53546   1.00
C6       0.85974    0.15900    0.36735   1.00
C6       0.87250    0.16370    0.62708   1.00
C6       0.89962    0.12734    0.42074   1.00
C6       0.90903    0.13253    0.57107   1.00
C6       0.84159    0.09280    0.39245   1.00
C6       0.93289    0.19516    0.60054   1.00
H2       0.83060    0.16431    0.35558   1.00
H2       0.86217    0.19085    0.64020   1.00
H2       0.87315    0.18719    0.37330   1.00
H2       0.84720    0.14529    0.62154   1.00
H2       0.87701    0.14494    0.34459   1.00
H2       0.89054    0.14873    0.64863   1.00
H2       0.91802    0.11227    0.39955   1.00
H2       0.92821    0.11670    0.59098   1.00
H2       0.91343    0.15524    0.42725   1.00
H2       0.88406    0.11380    0.56494   1.00
H2       0.89902    0.11002    0.44745   1.00
H2       0.92481    0.13737    0.54385   1.00
H2       0.81220    0.09544    0.38042   1.00
H2       0.92515    0.22307    0.61383   1.00
H2       0.85993    0.07916    0.37025   1.00
H2       0.95070    0.17907    0.62149   1.00
H2       0.84027    0.07305    0.41739   1.00
H2       0.95099    0.20112    0.57502   1.00
C4       0.75410    0.48025    0.25249   1.00
C4       0.75424    0.52191    0.25403   1.00
C3       0.77468    0.45897    0.22328   1.00
C3       0.77817    0.54504    0.22910   1.00
C3       0.73266    0.45854    0.28096   1.00
C3       0.72974    0.54170    0.28141   1.00
C2       0.75540    0.39595    0.25047   1.00
C2       0.75314    0.60622    0.25580   1.00
C3       0.77552    0.41811    0.22236   1.00
C3       0.77754    0.58591    0.22977   1.00
C3       0.73445    0.41696    0.27913   1.00
C3       0.72980    0.58336    0.28100   1.00
H1       0.78951    0.47237    0.20136   1.00
H1       0.79724    0.53306    0.20979   1.00
C5       0.71006    0.47835    0.31009   1.00
C5       0.70622    0.51998    0.30836   1.00
H1       0.79103    0.40451    0.20063   1.00
H1       0.79539    0.60091    0.21093   1.00
H1       0.71981    0.40052    0.29902   1.00
H1       0.71257    0.59848    0.29985   1.00
C6       0.69095    0.45515    0.34248   1.00
C6       0.67739    0.54119    0.33427   1.00
H2       0.71155    0.43345    0.35325   1.00
H2       0.66211    0.56310    0.31703   1.00
H2       0.68618    0.47286    0.36835   1.00
H2       0.65354    0.52228    0.34320   1.00
C6       0.65129    0.43606    0.33000   1.00
C6       0.69666    0.55942    0.37154   1.00
H2       0.65439    0.42292    0.30110   1.00
H2       0.72396    0.57383    0.36348   1.00
C6       0.63333    0.40459    0.35782   1.00
C6       0.67180    0.58911    0.39578   1.00
H2       0.62998    0.45949    0.32633   1.00
H2       0.70518    0.53546    0.39077   1.00
C6       0.65900    0.36735    0.35974   1.00
C6       0.66370    0.62708    0.37250   1.00
C6       0.62734    0.42074    0.39962   1.00
C6       0.63253    0.57107    0.40903   1.00
C6       0.59280    0.39245    0.34159   1.00
C6       0.69516    0.60054    0.43289   1.00
H2       0.66431    0.35558    0.33060   1.00
H2       0.69085    0.64020    0.36217   1.00
H2       0.68719    0.37330    0.37315   1.00
H2       0.64529    0.62154    0.34720   1.00
H2       0.64494    0.34459    0.37701   1.00
H2       0.64873    0.64863    0.39054   1.00
H2       0.61227    0.39955    0.41802   1.00
H2       0.61670    0.59098    0.42821   1.00
H2       0.65524    0.42725    0.41343   1.00
H2       0.61380    0.56494    0.38406   1.00
H2       0.61002    0.44745    0.39902   1.00
H2       0.63737    0.54385    0.42481   1.00
H2       0.59544    0.38042    0.31220   1.00
H2       0.72307    0.61383    0.42515   1.00
H2       0.57916    0.37025    0.35993   1.00
H2       0.67907    0.62149    0.45070   1.00
H2       0.57305    0.41739    0.34027   1.00
H2       0.70112    0.57502    0.45099   1.00
C4       0.51975    0.25249    0.24590   1.00
C4       0.47809    0.25403    0.24576   1.00
C3       0.54103    0.22328    0.22532   1.00
C3       0.45496    0.22910    0.22183   1.00
C3       0.54146    0.28096    0.26734   1.00
C3       0.45830    0.28141    0.27026   1.00
C2       0.60405    0.25047    0.24460   1.00
C2       0.39378    0.25580    0.24686   1.00
C3       0.58189    0.22236    0.22448   1.00
C3       0.41409    0.22977    0.22246   1.00
C3       0.58304    0.27913    0.26555   1.00
C3       0.41664    0.28100    0.27020   1.00
H1       0.52763    0.20136    0.21049   1.00
H1       0.46694    0.20979    0.20276   1.00
C5       0.52165    0.31009    0.28994   1.00
C5       0.48002    0.30836    0.29378   1.00
H1       0.59549    0.20063    0.20897   1.00
H1       0.39909    0.21093    0.20461   1.00
H1       0.59948    0.29902    0.28019   1.00
H1       0.40152    0.29985    0.28743   1.00
C6       0.54485    0.34248    0.30905   1.00
C6       0.45881    0.33427    0.32261   1.00
H2       0.56655    0.35325    0.28845   1.00
H2       0.43690    0.31703    0.33789   1.00
H2       0.52714    0.36835    0.31382   1.00
H2       0.47772    0.34320    0.34646   1.00
C6       0.56394    0.33000    0.34871   1.00
C6       0.44058    0.37154    0.30334   1.00
H2       0.57708    0.30110    0.34561   1.00
H2       0.42617    0.36348    0.27604   1.00
C6       0.59541    0.35782    0.36667   1.00
C6       0.41089    0.39578    0.32820   1.00
H2       0.54051    0.32633    0.37002   1.00
H2       0.46454    0.39077    0.29482   1.00
C6       0.63265    0.35974    0.34100   1.00
C6       0.37292    0.37250    0.33630   1.00
C6       0.57926    0.39962    0.37266   1.00
C6       0.42893    0.40903    0.36747   1.00
C6       0.60755    0.34159    0.40720   1.00
C6       0.39946    0.43289    0.30484   1.00
H2       0.64442    0.33060    0.33569   1.00
H2       0.35980    0.36217    0.30915   1.00
H2       0.62670    0.37315    0.31281   1.00
H2       0.37846    0.34720    0.35471   1.00
H2       0.65541    0.37701    0.35506   1.00
H2       0.35137    0.39054    0.35127   1.00
H2       0.60045    0.41802    0.38773   1.00
H2       0.40902    0.42821    0.38330   1.00
H2       0.57275    0.41343    0.34476   1.00
H2       0.43506    0.38406    0.38620   1.00
H2       0.55255    0.39902    0.38998   1.00
H2       0.45615    0.42481    0.36263   1.00
H2       0.61958    0.31220    0.40456   1.00
H2       0.38617    0.42515    0.27693   1.00
H2       0.62975    0.35993    0.42084   1.00
H2       0.37851    0.45070    0.32093   1.00
H2       0.58261    0.34027    0.42695   1.00
H2       0.42498    0.45099    0.29888   1.00
C4       0.98025    0.25249    0.25410   1.00
C4       1.02191    0.25403    0.25424   1.00
C3       0.95897    0.22328    0.27468   1.00
C3       1.04504    0.22910    0.27817   1.00
C3       0.95854    0.28096    0.23266   1.00
C3       1.04170    0.28141    0.22974   1.00
C2       0.89595    0.25047    0.25540   1.00
C2       1.10622    0.25580    0.25314   1.00
C3       0.91811    0.22236    0.27552   1.00
C3       1.08591    0.22977    0.27754   1.00
C3       0.91696    0.27913    0.23445   1.00
C3       1.08336    0.28100    0.22980   1.00
H1       0.97237    0.20136    0.28951   1.00
H1       1.03306    0.20979    0.29724   1.00
C5       0.97835    0.31009    0.21006   1.00
C5       1.01998    0.30836    0.20622   1.00
H1       0.90451    0.20063    0.29103   1.00
H1       1.10091    0.21093    0.29539   1.00
H1       0.90052    0.29902    0.21981   1.00
H1       1.09848    0.29985    0.21257   1.00
C6       0.95515    0.34248    0.19095   1.00
C6       1.04119    0.33427    0.17739   1.00
H2       0.93345    0.35325    0.21155   1.00
H2       1.06310    0.31703    0.16211   1.00
H2       0.97286    0.36835    0.18618   1.00
H2       1.02228    0.34320    0.15354   1.00
C6       0.93606    0.33000    0.15129   1.00
C6       1.05942    0.37154    0.19666   1.00
H2       0.92292    0.30110    0.15439   1.00
H2       1.07383    0.36348    0.22396   1.00
C6       0.90459    0.35782    0.13333   1.00
C6       1.08911    0.39578    0.17180   1.00
H2       0.95949    0.32633    0.12998   1.00
H2       1.03546    0.39077    0.20518   1.00
C6       0.86735    0.35974    0.15900   1.00
C6       1.12708    0.37250    0.16370   1.00
C6       0.92074    0.39962    0.12734   1.00
C6       1.07107    0.40903    0.13253   1.00
C6       0.89245    0.34159    0.09280   1.00
C6       1.10054    0.43289    0.19516   1.00
H2       0.85558    0.33060    0.16431   1.00
H2       1.14020    0.36217    0.19085   1.00
H2       0.87330    0.37315    0.18719   1.00
H2       1.12154    0.34720    0.14529   1.00
H2       0.84459    0.37701    0.14494   1.00
H2       1.14863    0.39054    0.14873   1.00
H2       0.89955    0.41802    0.11227   1.00
H2       1.09098    0.42821    0.11670   1.00
H2       0.92725    0.41343    0.15524   1.00
H2       1.06494    0.38406    0.11380   1.00
H2       0.94745    0.39902    0.11002   1.00
H2       1.04385    0.42481    0.13737   1.00
H2       0.88042    0.31220    0.09544   1.00
H2       1.11383    0.42515    0.22307   1.00
H2       0.87025    0.35993    0.07916   1.00
H2       1.12149    0.45070    0.17907   1.00
H2       0.91739    0.34027    0.07305   1.00
H2       1.07502    0.45099    0.20112   1.00
C4       0.74590    0.01975    0.25249   1.00
C4       0.74576    -0.02191   0.25403   1.00
C3       0.72532    0.04103    0.22328   1.00
C3       0.72183    -0.04504   0.22910   1.00
C3       0.76734    0.04146    0.28096   1.00
C3       0.77026    -0.04170   0.28141   1.00
C2       0.74460    0.10405    0.25047   1.00
C2       0.74686    -0.10622   0.25580   1.00
C3       0.72448    0.08189    0.22236   1.00
C3       0.72246    -0.08591   0.22977   1.00
C3       0.76555    0.08304    0.27913   1.00
C3       0.77020    -0.08336   0.28100   1.00
H1       0.71049    0.02763    0.20136   1.00
H1       0.70276    -0.03306   0.20979   1.00
C5       0.78994    0.02165    0.31009   1.00
C5       0.79378    -0.01998   0.30836   1.00
H1       0.70897    0.09549    0.20063   1.00
H1       0.70461    -0.10091   0.21093   1.00
H1       0.78019    0.09948    0.29902   1.00
H1       0.78743    -0.09848   0.29985   1.00
C6       0.80905    0.04485    0.34248   1.00
C6       0.82261    -0.04119   0.33427   1.00
H2       0.78845    0.06655    0.35325   1.00
H2       0.83789    -0.06310   0.31703   1.00
H2       0.81382    0.02714    0.36835   1.00
H2       0.84646    -0.02228   0.34320   1.00
C6       0.84871    0.06394    0.33000   1.00
C6       0.80334    -0.05942   0.37154   1.00
H2       0.84561    0.07708    0.30110   1.00
H2       0.77604    -0.07383   0.36348   1.00
C6       0.86667    0.09541    0.35782   1.00
C6       0.82820    -0.08911   0.39578   1.00
H2       0.87002    0.04051    0.32633   1.00
H2       0.79482    -0.03546   0.39077   1.00
C6       0.84100    0.13265    0.35974   1.00
C6       0.83630    -0.12708   0.37250   1.00
C6       0.87266    0.07926    0.39962   1.00
C6       0.86747    -0.07107   0.40903   1.00
C6       0.90720    0.10755    0.34159   1.00
C6       0.80484    -0.10054   0.43289   1.00
H2       0.83569    0.14442    0.33060   1.00
H2       0.80915    -0.14020   0.36217   1.00
H2       0.81281    0.12670    0.37315   1.00
H2       0.85471    -0.12154   0.34720   1.00
H2       0.85506    0.15541    0.37701   1.00
H2       0.85127    -0.14863   0.39054   1.00
H2       0.88773    0.10045    0.41802   1.00
H2       0.88330    -0.09098   0.42821   1.00
H2       0.84476    0.07275    0.41343   1.00
H2       0.88620    -0.06494   0.38406   1.00
H2       0.88998    0.05255    0.39902   1.00
H2       0.86263    -0.04385   0.42481   1.00
H2       0.90456    0.11958    0.31220   1.00
H2       0.77693    -0.11383   0.42515   1.00
H2       0.92084    0.12975    0.35993   1.00
H2       0.82093    -0.12149   0.45070   1.00
H2       0.92695    0.08261    0.34027   1.00
H2       0.79888    -0.07502   0.45099   1.00
C4       0.75249    0.24590    0.01975   1.00
C4       0.75403    0.24576    -0.02191   1.00
C3       0.72328    0.22532    0.04103   1.00
C3       0.72910    0.22183    -0.04504   1.00
C3       0.78096    0.26734    0.04146   1.00
C3       0.78141    0.27026    -0.04170   1.00
C2       0.75047    0.24460    0.10405   1.00
C2       0.75580    0.24686    -0.10622   1.00
C3       0.72236    0.22448    0.08189   1.00
C3       0.72977    0.22246    -0.08591   1.00
C3       0.77913    0.26555    0.08304   1.00
C3       0.78100    0.27020    -0.08336   1.00
H1       0.70136    0.21049    0.02763   1.00
H1       0.70979    0.20276    -0.03306   1.00
C5       0.81009    0.28994    0.02165   1.00
C5       0.80836    0.29378    -0.01998   1.00
H1       0.70063    0.20897    0.09549   1.00
H1       0.71093    0.20461    -0.10091   1.00
H1       0.79902    0.28019    0.09948   1.00
H1       0.79985    0.28743    -0.09848   1.00
C6       0.84248    0.30905    0.04485   1.00
C6       0.83427    0.32261    -0.04119   1.00
H2       0.85325    0.28845    0.06655   1.00
H2       0.81703    0.33789    -0.06310   1.00
H2       0.86835    0.31382    0.02714   1.00
H2       0.84320    0.34646    -0.02228   1.00
C6       0.83000    0.34871    0.06394   1.00
C6       0.87154    0.30334    -0.05942   1.00
H2       0.80110    0.34561    0.07708   1.00
H2       0.86348    0.27604    -0.07383   1.00
C6       0.85782    0.36667    0.09541   1.00
C6       0.89578    0.32820    -0.08911   1.00
H2       0.82633    0.37002    0.04051   1.00
H2       0.89077    0.29482    -0.03546   1.00
C6       0.85974    0.34100    0.13265   1.00
C6       0.87250    0.33630    -0.12708   1.00
C6       0.89962    0.37266    0.07926   1.00
C6       0.90903    0.36747    -0.07107   1.00
C6       0.84159    0.40720    0.10755   1.00
C6       0.93289    0.30484    -0.10054   1.00
H2       0.83060    0.33569    0.14442   1.00
H2       0.86217    0.30915    -0.14020   1.00
H2       0.87315    0.31281    0.12670   1.00
H2       0.84720    0.35471    -0.12154   1.00
H2       0.87701    0.35506    0.15541   1.00
H2       0.89054    0.35127    -0.14863   1.00
H2       0.91802    0.38773    0.10045   1.00
H2       0.92821    0.38330    -0.09098   1.00
H2       0.91343    0.34476    0.07275   1.00
H2       0.88406    0.38620    -0.06494   1.00
H2       0.89902    0.38998    0.05255   1.00
H2       0.92481    0.36263    -0.04385   1.00
H2       0.81220    0.40456    0.11958   1.00
H2       0.92515    0.27693    -0.11383   1.00
H2       0.85993    0.42084    0.12975   1.00
H2       0.95070    0.32093    -0.12149   1.00
H2       0.84027    0.42695    0.08261   1.00
H2       0.95099    0.29888    -0.07502   1.00
C4       0.91749    0.91910    1.14525   1.00
C4       0.91903    0.91924    1.18691   1.00
C3       0.88828    0.93968    1.12397   1.00
C3       0.89410    0.94317    1.21004   1.00
C3       0.94596    0.89766    1.12354   1.00
C3       0.94641    0.89474    1.20670   1.00
C2       0.91547    0.92040    1.06095   1.00
C2       0.92080    0.91814    1.27122   1.00
C3       0.88736    0.94052    1.08311   1.00
C3       0.89477    0.94254    1.25091   1.00
C3       0.94413    0.89945    1.08196   1.00
C3       0.94600    0.89480    1.24836   1.00
H1       0.86636    0.95451    1.13737   1.00
H1       0.87479    0.96224    1.19806   1.00
C5       0.97509    0.87506    1.14335   1.00
C5       0.97336    0.87122    1.18498   1.00
H1       0.86563    0.95603    1.06951   1.00
H1       0.87593    0.96039    1.26591   1.00
H1       0.96402    0.88481    1.06552   1.00
H1       0.96485    0.87757    1.26348   1.00
C6       1.00748    0.85595    1.12015   1.00
C6       0.99927    0.84239    1.20619   1.00
H2       1.01825    0.87655    1.09845   1.00
H2       0.98203    0.82711    1.22810   1.00
H2       1.03335    0.85118    1.13786   1.00
H2       1.00820    0.81854    1.18728   1.00
C6       0.99500    0.81629    1.10106   1.00
C6       1.03654    0.86166    1.22442   1.00
H2       0.96610    0.81939    1.08792   1.00
H2       1.02848    0.88896    1.23883   1.00
C6       1.02282    0.79833    1.06959   1.00
C6       1.06078    0.83680    1.25411   1.00
H2       0.99133    0.79498    1.12449   1.00
H2       1.05577    0.87018    1.20046   1.00
C6       1.02474    0.82400    1.03235   1.00
C6       1.03750    0.82870    1.29208   1.00
C6       1.06462    0.79234    1.08574   1.00
C6       1.07403    0.79753    1.23607   1.00
C6       1.00659    0.75780    1.05745   1.00
C6       1.09789    0.86016    1.26554   1.00
H2       0.99560    0.82931    1.02058   1.00
H2       1.02717    0.85585    1.30520   1.00
H2       1.03815    0.85219    1.03830   1.00
H2       1.01220    0.81029    1.28654   1.00
H2       1.04201    0.80994    1.00959   1.00
H2       1.05554    0.81373    1.31363   1.00
H2       1.08302    0.77727    1.06455   1.00
H2       1.09321    0.78170    1.25598   1.00
H2       1.07843    0.82024    1.09225   1.00
H2       1.04906    0.77880    1.22994   1.00
H2       1.06402    0.77502    1.11245   1.00
H2       1.08981    0.80237    1.20885   1.00
H2       0.97720    0.76044    1.04542   1.00
H2       1.09015    0.88807    1.27883   1.00
H2       1.02493    0.74416    1.03525   1.00
H2       1.11570    0.84407    1.28649   1.00
H2       1.00527    0.73805    1.08239   1.00
H2       1.11599    0.86612    1.24002   1.00
C4       0.91910    1.14525    0.91749   1.00
C4       0.91924    1.18691    0.91903   1.00
C3       0.93968    1.12397    0.88828   1.00
C3       0.94317    1.21004    0.89410   1.00
C3       0.89766    1.12354    0.94596   1.00
C3       0.89474    1.20670    0.94641   1.00
C2       0.92040    1.06095    0.91547   1.00
C2       0.91814    1.27122    0.92080   1.00
C3       0.94052    1.08311    0.88736   1.00
C3       0.94254    1.25091    0.89477   1.00
C3       0.89945    1.08196    0.94413   1.00
C3       0.89480    1.24836    0.94600   1.00
H1       0.95451    1.13737    0.86636   1.00
H1       0.96224    1.19806    0.87479   1.00
C5       0.87506    1.14335    0.97509   1.00
C5       0.87122    1.18498    0.97336   1.00
H1       0.95603    1.06951    0.86563   1.00
H1       0.96039    1.26591    0.87593   1.00
H1       0.88481    1.06552    0.96402   1.00
H1       0.87757    1.26348    0.96485   1.00
C6       0.85595    1.12015    1.00748   1.00
C6       0.84239    1.20619    0.99927   1.00
H2       0.87655    1.09845    1.01825   1.00
H2       0.82711    1.22810    0.98203   1.00
H2       0.85118    1.13786    1.03335   1.00
H2       0.81854    1.18728    1.00820   1.00
C6       0.81629    1.10106    0.99500   1.00
C6       0.86166    1.22442    1.03654   1.00
H2       0.81939    1.08792    0.96610   1.00
H2       0.88896    1.23883    1.02848   1.00
C6       0.79833    1.06959    1.02282   1.00
C6       0.83680    1.25411    1.06078   1.00
H2       0.79498    1.12449    0.99133   1.00
H2       0.87018    1.20046    1.05577   1.00
C6       0.82400    1.03235    1.02474   1.00
C6       0.82870    1.29208    1.03750   1.00
C6       0.79234    1.08574    1.06462   1.00
C6       0.79753    1.23607    1.07403   1.00
C6       0.75780    1.05745    1.00659   1.00
C6       0.86016    1.26554    1.09789   1.00
H2       0.82931    1.02058    0.99560   1.00
H2       0.85585    1.30520    1.02717   1.00
H2       0.85219    1.03830    1.03815   1.00
H2       0.81029    1.28654    1.01220   1.00
H2       0.80994    1.00959    1.04201   1.00
H2       0.81373    1.31363    1.05554   1.00
H2       0.77727    1.06455    1.08302   1.00
H2       0.78170    1.25598    1.09321   1.00
H2       0.82024    1.09225    1.07843   1.00
H2       0.77880    1.22994    1.04906   1.00
H2       0.77502    1.11245    1.06402   1.00
H2       0.80237    1.20885    1.08981   1.00
H2       0.76044    1.04542    0.97720   1.00
H2       0.88807    1.27883    1.09015   1.00
H2       0.74416    1.03525    1.02493   1.00
H2       0.84407    1.28649    1.11570   1.00
H2       0.73805    1.08239    1.00527   1.00
H2       0.86612    1.24002    1.11599   1.00
C4       0.68475    0.91749    0.91090   1.00
C4       0.64309    0.91903    0.91076   1.00
C3       0.70603    0.88828    0.89032   1.00
C3       0.61996    0.89410    0.88683   1.00
C3       0.70646    0.94596    0.93234   1.00
C3       0.62330    0.94641    0.93526   1.00
C2       0.76905    0.91547    0.90960   1.00
C2       0.55878    0.92080    0.91186   1.00
C3       0.74689    0.88736    0.88948   1.00
C3       0.57909    0.89477    0.88746   1.00
C3       0.74804    0.94413    0.93055   1.00
C3       0.58164    0.94600    0.93520   1.00
H1       0.69263    0.86636    0.87549   1.00
H1       0.63194    0.87479    0.86776   1.00
C5       0.68665    0.97509    0.95494   1.00
C5       0.64502    0.97336    0.95878   1.00
H1       0.76049    0.86563    0.87397   1.00
H1       0.56409    0.87593    0.86961   1.00
H1       0.76448    0.96402    0.94519   1.00
H1       0.56652    0.96485    0.95243   1.00
C6       0.70985    1.00748    0.97405   1.00
C6       0.62381    0.99927    0.98761   1.00
H2       0.73155    1.01825    0.95345   1.00
H2       0.60190    0.98203    1.00289   1.00
H2       0.69214    1.03335    0.97882   1.00
H2       0.64272    1.00820    1.01146   1.00
C6       0.72894    0.99500    1.01371   1.00
C6       0.60558    1.03654    0.96834   1.00
H2       0.74208    0.96610    1.01061   1.00
H2       0.59117    1.02848    0.94104   1.00
C6       0.76041    1.02282    1.03167   1.00
C6       0.57589    1.06078    0.99320   1.00
H2       0.70551    0.99133    1.03502   1.00
H2       0.62954    1.05577    0.95982   1.00
C6       0.79765    1.02474    1.00600   1.00
C6       0.53792    1.03750    1.00130   1.00
C6       0.74426    1.06462    1.03766   1.00
C6       0.59393    1.07403    1.03247   1.00
C6       0.77255    1.00659    1.07220   1.00
C6       0.56446    1.09789    0.96984   1.00
H2       0.80942    0.99560    1.00069   1.00
H2       0.52480    1.02717    0.97415   1.00
H2       0.79170    1.03815    0.97781   1.00
H2       0.54346    1.01220    1.01971   1.00
H2       0.82041    1.04201    1.02006   1.00
H2       0.51637    1.05554    1.01627   1.00
H2       0.76545    1.08302    1.05273   1.00
H2       0.57402    1.09321    1.04830   1.00
H2       0.73775    1.07843    1.00976   1.00
H2       0.60006    1.04906    1.05120   1.00
H2       0.71755    1.06402    1.05498   1.00
H2       0.62115    1.08981    1.02763   1.00
H2       0.78458    0.97720    1.06956   1.00
H2       0.55117    1.09015    0.94193   1.00
H2       0.79475    1.02493    1.08584   1.00
H2       0.54351    1.11570    0.98593   1.00
H2       0.74761    1.00527    1.09195   1.00
H2       0.58998    1.11599    0.96388   1.00
C4       1.14525    0.91749    0.91910   1.00
C4       1.18691    0.91903    0.91924   1.00
C3       1.12397    0.88828    0.93968   1.00
C3       1.21004    0.89410    0.94317   1.00
C3       1.12354    0.94596    0.89766   1.00
C3       1.20670    0.94641    0.89474   1.00
C2       1.06095    0.91547    0.92040   1.00
C2       1.27122    0.92080    0.91814   1.00
C3       1.08311    0.88736    0.94052   1.00
C3       1.25091    0.89477    0.94254   1.00
C3       1.08196    0.94413    0.89945   1.00
C3       1.24836    0.94600    0.89480   1.00
H1       1.13737    0.86636    0.95451   1.00
H1       1.19806    0.87479    0.96224   1.00
C5       1.14335    0.97509    0.87506   1.00
C5       1.18498    0.97336    0.87122   1.00
H1       1.06951    0.86563    0.95603   1.00
H1       1.26591    0.87593    0.96039   1.00
H1       1.06552    0.96402    0.88481   1.00
H1       1.26348    0.96485    0.87757   1.00
C6       1.12015    1.00748    0.85595   1.00
C6       1.20619    0.99927    0.84239   1.00
H2       1.09845    1.01825    0.87655   1.00
H2       1.22810    0.98203    0.82711   1.00
H2       1.13786    1.03335    0.85118   1.00
H2       1.18728    1.00820    0.81854   1.00
C6       1.10106    0.99500    0.81629   1.00
C6       1.22442    1.03654    0.86166   1.00
H2       1.08792    0.96610    0.81939   1.00
H2       1.23883    1.02848    0.88896   1.00
C6       1.06959    1.02282    0.79833   1.00
C6       1.25411    1.06078    0.83680   1.00
H2       1.12449    0.99133    0.79498   1.00
H2       1.20046    1.05577    0.87018   1.00
C6       1.03235    1.02474    0.82400   1.00
C6       1.29208    1.03750    0.82870   1.00
C6       1.08574    1.06462    0.79234   1.00
C6       1.23607    1.07403    0.79753   1.00
C6       1.05745    1.00659    0.75780   1.00
C6       1.26554    1.09789    0.86016   1.00
H2       1.02058    0.99560    0.82931   1.00
H2       1.30520    1.02717    0.85585   1.00
H2       1.03830    1.03815    0.85219   1.00
H2       1.28654    1.01220    0.81029   1.00
H2       1.00959    1.04201    0.80994   1.00
H2       1.31363    1.05554    0.81373   1.00
H2       1.06455    1.08302    0.77727   1.00
H2       1.25598    1.09321    0.78170   1.00
H2       1.09225    1.07843    0.82024   1.00
H2       1.22994    1.04906    0.77880   1.00
H2       1.11245    1.06402    0.77502   1.00
H2       1.20885    1.08981    0.80237   1.00
H2       1.04542    0.97720    0.76044   1.00
H2       1.27883    1.09015    0.88807   1.00
H2       1.03525    1.02493    0.74416   1.00
H2       1.28649    1.11570    0.84407   1.00
H2       1.08239    1.00527    0.73805   1.00
H2       1.24002    1.11599    0.86612   1.00
C4       0.91090    0.68475    0.91749   1.00
C4       0.91076    0.64309    0.91903   1.00
C3       0.89032    0.70603    0.88828   1.00
C3       0.88683    0.61996    0.89410   1.00
C3       0.93234    0.70646    0.94596   1.00
C3       0.93526    0.62330    0.94641   1.00
C2       0.90960    0.76905    0.91547   1.00
C2       0.91186    0.55878    0.92080   1.00
C3       0.88948    0.74689    0.88736   1.00
C3       0.88746    0.57909    0.89477   1.00
C3       0.93055    0.74804    0.94413   1.00
C3       0.93520    0.58164    0.94600   1.00
H1       0.87549    0.69263    0.86636   1.00
H1       0.86776    0.63194    0.87479   1.00
C5       0.95494    0.68665    0.97509   1.00
C5       0.95878    0.64502    0.97336   1.00
H1       0.87397    0.76049    0.86563   1.00
H1       0.86961    0.56409    0.87593   1.00
H1       0.94519    0.76448    0.96402   1.00
H1       0.95243    0.56652    0.96485   1.00
C6       0.97405    0.70985    1.00748   1.00
C6       0.98761    0.62381    0.99927   1.00
H2       0.95345    0.73155    1.01825   1.00
H2       1.00289    0.60190    0.98203   1.00
H2       0.97882    0.69214    1.03335   1.00
H2       1.01146    0.64272    1.00820   1.00
C6       1.01371    0.72894    0.99500   1.00
C6       0.96834    0.60558    1.03654   1.00
H2       1.01061    0.74208    0.96610   1.00
H2       0.94104    0.59117    1.02848   1.00
C6       1.03167    0.76041    1.02282   1.00
C6       0.99320    0.57589    1.06078   1.00
H2       1.03502    0.70551    0.99133   1.00
H2       0.95982    0.62954    1.05577   1.00
C6       1.00600    0.79765    1.02474   1.00
C6       1.00130    0.53792    1.03750   1.00
C6       1.03766    0.74426    1.06462   1.00
C6       1.03247    0.59393    1.07403   1.00
C6       1.07220    0.77255    1.00659   1.00
C6       0.96984    0.56446    1.09789   1.00
H2       1.00069    0.80942    0.99560   1.00
H2       0.97415    0.52480    1.02717   1.00
H2       0.97781    0.79170    1.03815   1.00
H2       1.01971    0.54346    1.01220   1.00
H2       1.02006    0.82041    1.04201   1.00
H2       1.01627    0.51637    1.05554   1.00
H2       1.05273    0.76545    1.08302   1.00
H2       1.04830    0.57402    1.09321   1.00
H2       1.00976    0.73775    1.07843   1.00
H2       1.05120    0.60006    1.04906   1.00
H2       1.05498    0.71755    1.06402   1.00
H2       1.02763    0.62115    1.08981   1.00
H2       1.06956    0.78458    0.97720   1.00
H2       0.94193    0.55117    1.09015   1.00
H2       1.08584    0.79475    1.02493   1.00
H2       0.98593    0.54351    1.11570   1.00
H2       1.09195    0.74761    1.00527   1.00
H2       0.96388    0.58998    1.11599   1.00
C4       0.91749    0.91090    0.68475   1.00
C4       0.91903    0.91076    0.64309   1.00
C3       0.88828    0.89032    0.70603   1.00
C3       0.89410    0.88683    0.61996   1.00
C3       0.94596    0.93234    0.70646   1.00
C3       0.94641    0.93526    0.62330   1.00
C2       0.91547    0.90960    0.76905   1.00
C2       0.92080    0.91186    0.55878   1.00
C3       0.88736    0.88948    0.74689   1.00
C3       0.89477    0.88746    0.57909   1.00
C3       0.94413    0.93055    0.74804   1.00
C3       0.94600    0.93520    0.58164   1.00
H1       0.86636    0.87549    0.69263   1.00
H1       0.87479    0.86776    0.63194   1.00
C5       0.97509    0.95494    0.68665   1.00
C5       0.97336    0.95878    0.64502   1.00
H1       0.86563    0.87397    0.76049   1.00
H1       0.87593    0.86961    0.56409   1.00
H1       0.96402    0.94519    0.76448   1.00
H1       0.96485    0.95243    0.56652   1.00
C6       1.00748    0.97405    0.70985   1.00
C6       0.99927    0.98761    0.62381   1.00
H2       1.01825    0.95345    0.73155   1.00
H2       0.98203    1.00289    0.60190   1.00
H2       1.03335    0.97882    0.69214   1.00
H2       1.00820    1.01146    0.64272   1.00
C6       0.99500    1.01371    0.72894   1.00
C6       1.03654    0.96834    0.60558   1.00
H2       0.96610    1.01061    0.74208   1.00
H2       1.02848    0.94104    0.59117   1.00
C6       1.02282    1.03167    0.76041   1.00
C6       1.06078    0.99320    0.57589   1.00
H2       0.99133    1.03502    0.70551   1.00
H2       1.05577    0.95982    0.62954   1.00
C6       1.02474    1.00600    0.79765   1.00
C6       1.03750    1.00130    0.53792   1.00
C6       1.06462    1.03766    0.74426   1.00
C6       1.07403    1.03247    0.59393   1.00
C6       1.00659    1.07220    0.77255   1.00
C6       1.09789    0.96984    0.56446   1.00
H2       0.99560    1.00069    0.80942   1.00
H2       1.02717    0.97415    0.52480   1.00
H2       1.03815    0.97781    0.79170   1.00
H2       1.01220    1.01971    0.54346   1.00
H2       1.04201    1.02006    0.82041   1.00
H2       1.05554    1.01627    0.51637   1.00
H2       1.08302    1.05273    0.76545   1.00
H2       1.09321    1.04830    0.57402   1.00
H2       1.07843    1.00976    0.73775   1.00
H2       1.04906    1.05120    0.60006   1.00
H2       1.06402    1.05498    0.71755   1.00
H2       1.08981    1.02763    0.62115   1.00
H2       0.97720    1.06956    0.78458   1.00
H2       1.09015    0.94193    0.55117   1.00
H2       1.02493    1.08584    0.79475   1.00
H2       1.11570    0.98593    0.54351   1.00
H2       1.00527    1.09195    0.74761   1.00
H2       1.11599    0.96388    0.58998   1.00
C4       0.41749    0.41910    1.14525   1.00
C4       0.41903    0.41924    1.18691   1.00
C3       0.38828    0.43968    1.12397   1.00
C3       0.39410    0.44317    1.21004   1.00
C3       0.44596    0.39766    1.12354   1.00
C3       0.44641    0.39474    1.20670   1.00
C2       0.41547    0.42040    1.06095   1.00
C2       0.42080    0.41814    1.27122   1.00
C3       0.38736    0.44052    1.08311   1.00
C3       0.39477    0.44254    1.25091   1.00
C3       0.44413    0.39945    1.08196   1.00
C3       0.44600    0.39480    1.24836   1.00
H1       0.36636    0.45451    1.13737   1.00
H1       0.37479    0.46224    1.19806   1.00
C5       0.47509    0.37506    1.14335   1.00
C5       0.47336    0.37122    1.18498   1.00
H1       0.36563    0.45603    1.06951   1.00
H1       0.37593    0.46039    1.26591   1.00
H1       0.46402    0.38481    1.06552   1.00
H1       0.46485    0.37757    1.26348   1.00
C6       0.50748    0.35595    1.12015   1.00
C6       0.49927    0.34239    1.20619   1.00
H2       0.51825    0.37655    1.09845   1.00
H2       0.48203    0.32711    1.22810   1.00
H2       0.53335    0.35118    1.13786   1.00
H2       0.50820    0.31854    1.18728   1.00
C6       0.49500    0.31629    1.10106   1.00
C6       0.53654    0.36166    1.22442   1.00
H2       0.46610    0.31939    1.08792   1.00
H2       0.52848    0.38896    1.23883   1.00
C6       0.52282    0.29833    1.06959   1.00
C6       0.56078    0.33680    1.25411   1.00
H2       0.49133    0.29498    1.12449   1.00
H2       0.55577    0.37018    1.20046   1.00
C6       0.52474    0.32400    1.03235   1.00
C6       0.53750    0.32870    1.29208   1.00
C6       0.56462    0.29234    1.08574   1.00
C6       0.57403    0.29753    1.23607   1.00
C6       0.50659    0.25780    1.05745   1.00
C6       0.59789    0.36016    1.26554   1.00
H2       0.49560    0.32931    1.02058   1.00
H2       0.52717    0.35585    1.30520   1.00
H2       0.53815    0.35219    1.03830   1.00
H2       0.51220    0.31029    1.28654   1.00
H2       0.54201    0.30994    1.00959   1.00
H2       0.55554    0.31373    1.31363   1.00
H2       0.58302    0.27727    1.06455   1.00
H2       0.59321    0.28170    1.25598   1.00
H2       0.57843    0.32024    1.09225   1.00
H2       0.54906    0.27880    1.22994   1.00
H2       0.56402    0.27502    1.11245   1.00
H2       0.58981    0.30237    1.20885   1.00
H2       0.47720    0.26044    1.04542   1.00
H2       0.59015    0.38807    1.27883   1.00
H2       0.52493    0.24416    1.03525   1.00
H2       0.61570    0.34407    1.28649   1.00
H2       0.50527    0.23805    1.08239   1.00
H2       0.61599    0.36612    1.24002   1.00
C4       0.41910    0.64525    0.91749   1.00
C4       0.41924    0.68691    0.91903   1.00
C3       0.43968    0.62397    0.88828   1.00
C3       0.44317    0.71004    0.89410   1.00
C3       0.39766    0.62354    0.94596   1.00
C3       0.39474    0.70670    0.94641   1.00
C2       0.42040    0.56095    0.91547   1.00
C2       0.41814    0.77122    0.92080   1.00
C3       0.44052    0.58311    0.88736   1.00
C3       0.44254    0.75091    0.89477   1.00
C3       0.39945    0.58196    0.94413   1.00
C3       0.39480    0.74836    0.94600   1.00
H1       0.45451    0.63737    0.86636   1.00
H1       0.46224    0.69806    0.87479   1.00
C5       0.37506    0.64335    0.97509   1.00
C5       0.37122    0.68498    0.97336   1.00
H1       0.45603    0.56951    0.86563   1.00
H1       0.46039    0.76591    0.87593   1.00
H1       0.38481    0.56552    0.96402   1.00
H1       0.37757    0.76348    0.96485   1.00
C6       0.35595    0.62015    1.00748   1.00
C6       0.34239    0.70619    0.99927   1.00
H2       0.37655    0.59845    1.01825   1.00
H2       0.32711    0.72810    0.98203   1.00
H2       0.35118    0.63786    1.03335   1.00
H2       0.31854    0.68728    1.00820   1.00
C6       0.31629    0.60106    0.99500   1.00
C6       0.36166    0.72442    1.03654   1.00
H2       0.31939    0.58792    0.96610   1.00
H2       0.38896    0.73883    1.02848   1.00
C6       0.29833    0.56959    1.02282   1.00
C6       0.33680    0.75411    1.06078   1.00
H2       0.29498    0.62449    0.99133   1.00
H2       0.37018    0.70046    1.05577   1.00
C6       0.32400    0.53235    1.02474   1.00
C6       0.32870    0.79208    1.03750   1.00
C6       0.29234    0.58574    1.06462   1.00
C6       0.29753    0.73607    1.07403   1.00
C6       0.25780    0.55745    1.00659   1.00
C6       0.36016    0.76554    1.09789   1.00
H2       0.32931    0.52058    0.99560   1.00
H2       0.35585    0.80520    1.02717   1.00
H2       0.35219    0.53830    1.03815   1.00
H2       0.31029    0.78654    1.01220   1.00
H2       0.30994    0.50959    1.04201   1.00
H2       0.31373    0.81363    1.05554   1.00
H2       0.27727    0.56455    1.08302   1.00
H2       0.28170    0.75598    1.09321   1.00
H2       0.32024    0.59225    1.07843   1.00
H2       0.27880    0.72994    1.04906   1.00
H2       0.27502    0.61245    1.06402   1.00
H2       0.30237    0.70885    1.08981   1.00
H2       0.26044    0.54542    0.97720   1.00
H2       0.38807    0.77883    1.09015   1.00
H2       0.24416    0.53525    1.02493   1.00
H2       0.34407    0.78649    1.11570   1.00
H2       0.23805    0.58239    1.00527   1.00
H2       0.36612    0.74002    1.11599   1.00
C4       0.18475    0.41749    0.91090   1.00
C4       0.14309    0.41903    0.91076   1.00
C3       0.20603    0.38828    0.89032   1.00
C3       0.11996    0.39410    0.88683   1.00
C3       0.20646    0.44596    0.93234   1.00
C3       0.12330    0.44641    0.93526   1.00
C2       0.26905    0.41547    0.90960   1.00
C2       0.05878    0.42080    0.91186   1.00
C3       0.24689    0.38736    0.88948   1.00
C3       0.07909    0.39477    0.88746   1.00
C3       0.24804    0.44413    0.93055   1.00
C3       0.08164    0.44600    0.93520   1.00
H1       0.19263    0.36636    0.87549   1.00
H1       0.13194    0.37479    0.86776   1.00
C5       0.18665    0.47509    0.95494   1.00
C5       0.14502    0.47336    0.95878   1.00
H1       0.26049    0.36563    0.87397   1.00
H1       0.06409    0.37593    0.86961   1.00
H1       0.26448    0.46402    0.94519   1.00
H1       0.06652    0.46485    0.95243   1.00
C6       0.20985    0.50748    0.97405   1.00
C6       0.12381    0.49927    0.98761   1.00
H2       0.23155    0.51825    0.95345   1.00
H2       0.10190    0.48203    1.00289   1.00
H2       0.19214    0.53335    0.97882   1.00
H2       0.14272    0.50820    1.01146   1.00
C6       0.22894    0.49500    1.01371   1.00
C6       0.10558    0.53654    0.96834   1.00
H2       0.24208    0.46610    1.01061   1.00
H2       0.09117    0.52848    0.94104   1.00
C6       0.26041    0.52282    1.03167   1.00
C6       0.07589    0.56078    0.99320   1.00
H2       0.20551    0.49133    1.03502   1.00
H2       0.12954    0.55577    0.95982   1.00
C6       0.29765    0.52474    1.00600   1.00
C6       0.03792    0.53750    1.00130   1.00
C6       0.24426    0.56462    1.03766   1.00
C6       0.09393    0.57403    1.03247   1.00
C6       0.27255    0.50659    1.07220   1.00
C6       0.06446    0.59789    0.96984   1.00
H2       0.30942    0.49560    1.00069   1.00
H2       0.02480    0.52717    0.97415   1.00
H2       0.29170    0.53815    0.97781   1.00
H2       0.04346    0.51220    1.01971   1.00
H2       0.32041    0.54201    1.02006   1.00
H2       0.01637    0.55554    1.01627   1.00
H2       0.26545    0.58302    1.05273   1.00
H2       0.07402    0.59321    1.04830   1.00
H2       0.23775    0.57843    1.00976   1.00
H2       0.10006    0.54906    1.05120   1.00
H2       0.21755    0.56402    1.05498   1.00
H2       0.12115    0.58981    1.02763   1.00
H2       0.28458    0.47720    1.06956   1.00
H2       0.05117    0.59015    0.94193   1.00
H2       0.29475    0.52493    1.08584   1.00
H2       0.04351    0.61570    0.98593   1.00
H2       0.24761    0.50527    1.09195   1.00
H2       0.08998    0.61599    0.96388   1.00
C4       0.64525    0.41749    0.91910   1.00
C4       0.68691    0.41903    0.91924   1.00
C3       0.62397    0.38828    0.93968   1.00
C3       0.71004    0.39410    0.94317   1.00
C3       0.62354    0.44596    0.89766   1.00
C3       0.70670    0.44641    0.89474   1.00
C2       0.56095    0.41547    0.92040   1.00
C2       0.77122    0.42080    0.91814   1.00
C3       0.58311    0.38736    0.94052   1.00
C3       0.75091    0.39477    0.94254   1.00
C3       0.58196    0.44413    0.89945   1.00
C3       0.74836    0.44600    0.89480   1.00
H1       0.63737    0.36636    0.95451   1.00
H1       0.69806    0.37479    0.96224   1.00
C5       0.64335    0.47509    0.87506   1.00
C5       0.68498    0.47336    0.87122   1.00
H1       0.56951    0.36563    0.95603   1.00
H1       0.76591    0.37593    0.96039   1.00
H1       0.56552    0.46402    0.88481   1.00
H1       0.76348    0.46485    0.87757   1.00
C6       0.62015    0.50748    0.85595   1.00
C6       0.70619    0.49927    0.84239   1.00
H2       0.59845    0.51825    0.87655   1.00
H2       0.72810    0.48203    0.82711   1.00
H2       0.63786    0.53335    0.85118   1.00
H2       0.68728    0.50820    0.81854   1.00
C6       0.60106    0.49500    0.81629   1.00
C6       0.72442    0.53654    0.86166   1.00
H2       0.58792    0.46610    0.81939   1.00
H2       0.73883    0.52848    0.88896   1.00
C6       0.56959    0.52282    0.79833   1.00
C6       0.75411    0.56078    0.83680   1.00
H2       0.62449    0.49133    0.79498   1.00
H2       0.70046    0.55577    0.87018   1.00
C6       0.53235    0.52474    0.82400   1.00
C6       0.79208    0.53750    0.82870   1.00
C6       0.58574    0.56462    0.79234   1.00
C6       0.73607    0.57403    0.79753   1.00
C6       0.55745    0.50659    0.75780   1.00
C6       0.76554    0.59789    0.86016   1.00
H2       0.52058    0.49560    0.82931   1.00
H2       0.80520    0.52717    0.85585   1.00
H2       0.53830    0.53815    0.85219   1.00
H2       0.78654    0.51220    0.81029   1.00
H2       0.50959    0.54201    0.80994   1.00
H2       0.81363    0.55554    0.81373   1.00
H2       0.56455    0.58302    0.77727   1.00
H2       0.75598    0.59321    0.78170   1.00
H2       0.59225    0.57843    0.82024   1.00
H2       0.72994    0.54906    0.77880   1.00
H2       0.61245    0.56402    0.77502   1.00
H2       0.70885    0.58981    0.80237   1.00
H2       0.54542    0.47720    0.76044   1.00
H2       0.77883    0.59015    0.88807   1.00
H2       0.53525    0.52493    0.74416   1.00
H2       0.78649    0.61570    0.84407   1.00
H2       0.58239    0.50527    0.73805   1.00
H2       0.74002    0.61599    0.86612   1.00
C4       0.41090    0.18475    0.91749   1.00
C4       0.41076    0.14309    0.91903   1.00
C3       0.39032    0.20603    0.88828   1.00
C3       0.38683    0.11996    0.89410   1.00
C3       0.43234    0.20646    0.94596   1.00
C3       0.43526    0.12330    0.94641   1.00
C2       0.40960    0.26905    0.91547   1.00
C2       0.41186    0.05878    0.92080   1.00
C3       0.38948    0.24689    0.88736   1.00
C3       0.38746    0.07909    0.89477   1.00
C3       0.43055    0.24804    0.94413   1.00
C3       0.43520    0.08164    0.94600   1.00
H1       0.37549    0.19263    0.86636   1.00
H1       0.36776    0.13194    0.87479   1.00
C5       0.45494    0.18665    0.97509   1.00
C5       0.45878    0.14502    0.97336   1.00
H1       0.37397    0.26049    0.86563   1.00
H1       0.36961    0.06409    0.87593   1.00
H1       0.44519    0.26448    0.96402   1.00
H1       0.45243    0.06652    0.96485   1.00
C6       0.47405    0.20985    1.00748   1.00
C6       0.48761    0.12381    0.99927   1.00
H2       0.45345    0.23155    1.01825   1.00
H2       0.50289    0.10190    0.98203   1.00
H2       0.47882    0.19214    1.03335   1.00
H2       0.51146    0.14272    1.00820   1.00
C6       0.51371    0.22894    0.99500   1.00
C6       0.46834    0.10558    1.03654   1.00
H2       0.51061    0.24208    0.96610   1.00
H2       0.44104    0.09117    1.02848   1.00
C6       0.53167    0.26041    1.02282   1.00
C6       0.49320    0.07589    1.06078   1.00
H2       0.53502    0.20551    0.99133   1.00
H2       0.45982    0.12954    1.05577   1.00
C6       0.50600    0.29765    1.02474   1.00
C6       0.50130    0.03792    1.03750   1.00
C6       0.53766    0.24426    1.06462   1.00
C6       0.53247    0.09393    1.07403   1.00
C6       0.57220    0.27255    1.00659   1.00
C6       0.46984    0.06446    1.09789   1.00
H2       0.50069    0.30942    0.99560   1.00
H2       0.47415    0.02480    1.02717   1.00
H2       0.47781    0.29170    1.03815   1.00
H2       0.51971    0.04346    1.01220   1.00
H2       0.52006    0.32041    1.04201   1.00
H2       0.51627    0.01637    1.05554   1.00
H2       0.55273    0.26545    1.08302   1.00
H2       0.54830    0.07402    1.09321   1.00
H2       0.50976    0.23775    1.07843   1.00
H2       0.55120    0.10006    1.04906   1.00
H2       0.55498    0.21755    1.06402   1.00
H2       0.52763    0.12115    1.08981   1.00
H2       0.56956    0.28458    0.97720   1.00
H2       0.44193    0.05117    1.09015   1.00
H2       0.58584    0.29475    1.02493   1.00
H2       0.48593    0.04351    1.11570   1.00
H2       0.59195    0.24761    1.00527   1.00
H2       0.46388    0.08998    1.11599   1.00
C4       0.41749    0.41090    0.68475   1.00
C4       0.41903    0.41076    0.64309   1.00
C3       0.38828    0.39032    0.70603   1.00
C3       0.39410    0.38683    0.61996   1.00
C3       0.44596    0.43234    0.70646   1.00
C3       0.44641    0.43526    0.62330   1.00
C2       0.41547    0.40960    0.76905   1.00
C2       0.42080    0.41186    0.55878   1.00
C3       0.38736    0.38948    0.74689   1.00
C3       0.39477    0.38746    0.57909   1.00
C3       0.44413    0.43055    0.74804   1.00
C3       0.44600    0.43520    0.58164   1.00
H1       0.36636    0.37549    0.69263   1.00
H1       0.37479    0.36776    0.63194   1.00
C5       0.47509    0.45494    0.68665   1.00
C5       0.47336    0.45878    0.64502   1.00
H1       0.36563    0.37397    0.76049   1.00
H1       0.37593    0.36961    0.56409   1.00
H1       0.46402    0.44519    0.76448   1.00
H1       0.46485    0.45243    0.56652   1.00
C6       0.50748    0.47405    0.70985   1.00
C6       0.49927    0.48761    0.62381   1.00
H2       0.51825    0.45345    0.73155   1.00
H2       0.48203    0.50289    0.60190   1.00
H2       0.53335    0.47882    0.69214   1.00
H2       0.50820    0.51146    0.64272   1.00
C6       0.49500    0.51371    0.72894   1.00
C6       0.53654    0.46834    0.60558   1.00
H2       0.46610    0.51061    0.74208   1.00
H2       0.52848    0.44104    0.59117   1.00
C6       0.52282    0.53167    0.76041   1.00
C6       0.56078    0.49320    0.57589   1.00
H2       0.49133    0.53502    0.70551   1.00
H2       0.55577    0.45982    0.62954   1.00
C6       0.52474    0.50600    0.79765   1.00
C6       0.53750    0.50130    0.53792   1.00
C6       0.56462    0.53766    0.74426   1.00
C6       0.57403    0.53247    0.59393   1.00
C6       0.50659    0.57220    0.77255   1.00
C6       0.59789    0.46984    0.56446   1.00
H2       0.49560    0.50069    0.80942   1.00
H2       0.52717    0.47415    0.52480   1.00
H2       0.53815    0.47781    0.79170   1.00
H2       0.51220    0.51971    0.54346   1.00
H2       0.54201    0.52006    0.82041   1.00
H2       0.55554    0.51627    0.51637   1.00
H2       0.58302    0.55273    0.76545   1.00
H2       0.59321    0.54830    0.57402   1.00
H2       0.57843    0.50976    0.73775   1.00
H2       0.54906    0.55120    0.60006   1.00
H2       0.56402    0.55498    0.71755   1.00
H2       0.58981    0.52763    0.62115   1.00
H2       0.47720    0.56956    0.78458   1.00
H2       0.59015    0.44193    0.55117   1.00
H2       0.52493    0.58584    0.79475   1.00
H2       0.61570    0.48593    0.54351   1.00
H2       0.50527    0.59195    0.74761   1.00
H2       0.61599    0.46388    0.58998   1.00
C4       0.41749    0.91910    0.64525   1.00
C4       0.41903    0.91924    0.68691   1.00
C3       0.38828    0.93968    0.62397   1.00
C3       0.39410    0.94317    0.71004   1.00
C3       0.44596    0.89766    0.62354   1.00
C3       0.44641    0.89474    0.70670   1.00
C2       0.41547    0.92040    0.56095   1.00
C2       0.42080    0.91814    0.77122   1.00
C3       0.38736    0.94052    0.58311   1.00
C3       0.39477    0.94254    0.75091   1.00
C3       0.44413    0.89945    0.58196   1.00
C3       0.44600    0.89480    0.74836   1.00
H1       0.36636    0.95451    0.63737   1.00
H1       0.37479    0.96224    0.69806   1.00
C5       0.47509    0.87506    0.64335   1.00
C5       0.47336    0.87122    0.68498   1.00
H1       0.36563    0.95603    0.56951   1.00
H1       0.37593    0.96039    0.76591   1.00
H1       0.46402    0.88481    0.56552   1.00
H1       0.46485    0.87757    0.76348   1.00
C6       0.50748    0.85595    0.62015   1.00
C6       0.49927    0.84239    0.70619   1.00
H2       0.51825    0.87655    0.59845   1.00
H2       0.48203    0.82711    0.72810   1.00
H2       0.53335    0.85118    0.63786   1.00
H2       0.50820    0.81854    0.68728   1.00
C6       0.49500    0.81629    0.60106   1.00
C6       0.53654    0.86166    0.72442   1.00
H2       0.46610    0.81939    0.58792   1.00
H2       0.52848    0.88896    0.73883   1.00
C6       0.52282    0.79833    0.56959   1.00
C6       0.56078    0.83680    0.75411   1.00
H2       0.49133    0.79498    0.62449   1.00
H2       0.55577    0.87018    0.70046   1.00
C6       0.52474    0.82400    0.53235   1.00
C6       0.53750    0.82870    0.79208   1.00
C6       0.56462    0.79234    0.58574   1.00
C6       0.57403    0.79753    0.73607   1.00
C6       0.50659    0.75780    0.55745   1.00
C6       0.59789    0.86016    0.76554   1.00
H2       0.49560    0.82931    0.52058   1.00
H2       0.52717    0.85585    0.80520   1.00
H2       0.53815    0.85219    0.53830   1.00
H2       0.51220    0.81029    0.78654   1.00
H2       0.54201    0.80994    0.50959   1.00
H2       0.55554    0.81373    0.81363   1.00
H2       0.58302    0.77727    0.56455   1.00
H2       0.59321    0.78170    0.75598   1.00
H2       0.57843    0.82024    0.59225   1.00
H2       0.54906    0.77880    0.72994   1.00
H2       0.56402    0.77502    0.61245   1.00
H2       0.58981    0.80237    0.70885   1.00
H2       0.47720    0.76044    0.54542   1.00
H2       0.59015    0.88807    0.77883   1.00
H2       0.52493    0.74416    0.53525   1.00
H2       0.61570    0.84407    0.78649   1.00
H2       0.50527    0.73805    0.58239   1.00
H2       0.61599    0.86612    0.74002   1.00
C4       0.41910    1.14525    0.41749   1.00
C4       0.41924    1.18691    0.41903   1.00
C3       0.43968    1.12397    0.38828   1.00
C3       0.44317    1.21004    0.39410   1.00
C3       0.39766    1.12354    0.44596   1.00
C3       0.39474    1.20670    0.44641   1.00
C2       0.42040    1.06095    0.41547   1.00
C2       0.41814    1.27122    0.42080   1.00
C3       0.44052    1.08311    0.38736   1.00
C3       0.44254    1.25091    0.39477   1.00
C3       0.39945    1.08196    0.44413   1.00
C3       0.39480    1.24836    0.44600   1.00
H1       0.45451    1.13737    0.36636   1.00
H1       0.46224    1.19806    0.37479   1.00
C5       0.37506    1.14335    0.47509   1.00
C5       0.37122    1.18498    0.47336   1.00
H1       0.45603    1.06951    0.36563   1.00
H1       0.46039    1.26591    0.37593   1.00
H1       0.38481    1.06552    0.46402   1.00
H1       0.37757    1.26348    0.46485   1.00
C6       0.35595    1.12015    0.50748   1.00
C6       0.34239    1.20619    0.49927   1.00
H2       0.37655    1.09845    0.51825   1.00
H2       0.32711    1.22810    0.48203   1.00
H2       0.35118    1.13786    0.53335   1.00
H2       0.31854    1.18728    0.50820   1.00
C6       0.31629    1.10106    0.49500   1.00
C6       0.36166    1.22442    0.53654   1.00
H2       0.31939    1.08792    0.46610   1.00
H2       0.38896    1.23883    0.52848   1.00
C6       0.29833    1.06959    0.52282   1.00
C6       0.33680    1.25411    0.56078   1.00
H2       0.29498    1.12449    0.49133   1.00
H2       0.37018    1.20046    0.55577   1.00
C6       0.32400    1.03235    0.52474   1.00
C6       0.32870    1.29208    0.53750   1.00
C6       0.29234    1.08574    0.56462   1.00
C6       0.29753    1.23607    0.57403   1.00
C6       0.25780    1.05745    0.50659   1.00
C6       0.36016    1.26554    0.59789   1.00
H2       0.32931    1.02058    0.49560   1.00
H2       0.35585    1.30520    0.52717   1.00
H2       0.35219    1.03830    0.53815   1.00
H2       0.31029    1.28654    0.51220   1.00
H2       0.30994    1.00959    0.54201   1.00
H2       0.31373    1.31363    0.55554   1.00
H2       0.27727    1.06455    0.58302   1.00
H2       0.28170    1.25598    0.59321   1.00
H2       0.32024    1.09225    0.57843   1.00
H2       0.27880    1.22994    0.54906   1.00
H2       0.27502    1.11245    0.56402   1.00
H2       0.30237    1.20885    0.58981   1.00
H2       0.26044    1.04542    0.47720   1.00
H2       0.38807    1.27883    0.59015   1.00
H2       0.24416    1.03525    0.52493   1.00
H2       0.34407    1.28649    0.61570   1.00
H2       0.23805    1.08239    0.50527   1.00
H2       0.36612    1.24002    0.61599   1.00
C4       0.18475    0.91749    0.41090   1.00
C4       0.14309    0.91903    0.41076   1.00
C3       0.20603    0.88828    0.39032   1.00
C3       0.11996    0.89410    0.38683   1.00
C3       0.20646    0.94596    0.43234   1.00
C3       0.12330    0.94641    0.43526   1.00
C2       0.26905    0.91547    0.40960   1.00
C2       0.05878    0.92080    0.41186   1.00
C3       0.24689    0.88736    0.38948   1.00
C3       0.07909    0.89477    0.38746   1.00
C3       0.24804    0.94413    0.43055   1.00
C3       0.08164    0.94600    0.43520   1.00
H1       0.19263    0.86636    0.37549   1.00
H1       0.13194    0.87479    0.36776   1.00
C5       0.18665    0.97509    0.45494   1.00
C5       0.14502    0.97336    0.45878   1.00
H1       0.26049    0.86563    0.37397   1.00
H1       0.06409    0.87593    0.36961   1.00
H1       0.26448    0.96402    0.44519   1.00
H1       0.06652    0.96485    0.45243   1.00
C6       0.20985    1.00748    0.47405   1.00
C6       0.12381    0.99927    0.48761   1.00
H2       0.23155    1.01825    0.45345   1.00
H2       0.10190    0.98203    0.50289   1.00
H2       0.19214    1.03335    0.47882   1.00
H2       0.14272    1.00820    0.51146   1.00
C6       0.22894    0.99500    0.51371   1.00
C6       0.10558    1.03654    0.46834   1.00
H2       0.24208    0.96610    0.51061   1.00
H2       0.09117    1.02848    0.44104   1.00
C6       0.26041    1.02282    0.53167   1.00
C6       0.07589    1.06078    0.49320   1.00
H2       0.20551    0.99133    0.53502   1.00
H2       0.12954    1.05577    0.45982   1.00
C6       0.29765    1.02474    0.50600   1.00
C6       0.03792    1.03750    0.50130   1.00
C6       0.24426    1.06462    0.53766   1.00
C6       0.09393    1.07403    0.53247   1.00
C6       0.27255    1.00659    0.57220   1.00
C6       0.06446    1.09789    0.46984   1.00
H2       0.30942    0.99560    0.50069   1.00
H2       0.02480    1.02717    0.47415   1.00
H2       0.29170    1.03815    0.47781   1.00
H2       0.04346    1.01220    0.51971   1.00
H2       0.32041    1.04201    0.52006   1.00
H2       0.01637    1.05554    0.51627   1.00
H2       0.26545    1.08302    0.55273   1.00
H2       0.07402    1.09321    0.54830   1.00
H2       0.23775    1.07843    0.50976   1.00
H2       0.10006    1.04906    0.55120   1.00
H2       0.21755    1.06402    0.55498   1.00
H2       0.12115    1.08981    0.52763   1.00
H2       0.28458    0.97720    0.56956   1.00
H2       0.05117    1.09015    0.44193   1.00
H2       0.29475    1.02493    0.58584   1.00
H2       0.04351    1.11570    0.48593   1.00
H2       0.24761    1.00527    0.59195   1.00
H2       0.08998    1.11599    0.46388   1.00
C4       0.64525    0.91749    0.41910   1.00
C4       0.68691    0.91903    0.41924   1.00
C3       0.62397    0.88828    0.43968   1.00
C3       0.71004    0.89410    0.44317   1.00
C3       0.62354    0.94596    0.39766   1.00
C3       0.70670    0.94641    0.39474   1.00
C2       0.56095    0.91547    0.42040   1.00
C2       0.77122    0.92080    0.41814   1.00
C3       0.58311    0.88736    0.44052   1.00
C3       0.75091    0.89477    0.44254   1.00
C3       0.58196    0.94413    0.39945   1.00
C3       0.74836    0.94600    0.39480   1.00
H1       0.63737    0.86636    0.45451   1.00
H1       0.69806    0.87479    0.46224   1.00
C5       0.64335    0.97509    0.37506   1.00
C5       0.68498    0.97336    0.37122   1.00
H1       0.56951    0.86563    0.45603   1.00
H1       0.76591    0.87593    0.46039   1.00
H1       0.56552    0.96402    0.38481   1.00
H1       0.76348    0.96485    0.37757   1.00
C6       0.62015    1.00748    0.35595   1.00
C6       0.70619    0.99927    0.34239   1.00
H2       0.59845    1.01825    0.37655   1.00
H2       0.72810    0.98203    0.32711   1.00
H2       0.63786    1.03335    0.35118   1.00
H2       0.68728    1.00820    0.31854   1.00
C6       0.60106    0.99500    0.31629   1.00
C6       0.72442    1.03654    0.36166   1.00
H2       0.58792    0.96610    0.31939   1.00
H2       0.73883    1.02848    0.38896   1.00
C6       0.56959    1.02282    0.29833   1.00
C6       0.75411    1.06078    0.33680   1.00
H2       0.62449    0.99133    0.29498   1.00
H2       0.70046    1.05577    0.37018   1.00
C6       0.53235    1.02474    0.32400   1.00
C6       0.79208    1.03750    0.32870   1.00
C6       0.58574    1.06462    0.29234   1.00
C6       0.73607    1.07403    0.29753   1.00
C6       0.55745    1.00659    0.25780   1.00
C6       0.76554    1.09789    0.36016   1.00
H2       0.52058    0.99560    0.32931   1.00
H2       0.80520    1.02717    0.35585   1.00
H2       0.53830    1.03815    0.35219   1.00
H2       0.78654    1.01220    0.31029   1.00
H2       0.50959    1.04201    0.30994   1.00
H2       0.81363    1.05554    0.31373   1.00
H2       0.56455    1.08302    0.27727   1.00
H2       0.75598    1.09321    0.28170   1.00
H2       0.59225    1.07843    0.32024   1.00
H2       0.72994    1.04906    0.27880   1.00
H2       0.61245    1.06402    0.27502   1.00
H2       0.70885    1.08981    0.30237   1.00
H2       0.54542    0.97720    0.26044   1.00
H2       0.77883    1.09015    0.38807   1.00
H2       0.53525    1.02493    0.24416   1.00
H2       0.78649    1.11570    0.34407   1.00
H2       0.58239    1.00527    0.23805   1.00
H2       0.74002    1.11599    0.36612   1.00
C4       0.41090    0.68475    0.41749   1.00
C4       0.41076    0.64309    0.41903   1.00
C3       0.39032    0.70603    0.38828   1.00
C3       0.38683    0.61996    0.39410   1.00
C3       0.43234    0.70646    0.44596   1.00
C3       0.43526    0.62330    0.44641   1.00
C2       0.40960    0.76905    0.41547   1.00
C2       0.41186    0.55878    0.42080   1.00
C3       0.38948    0.74689    0.38736   1.00
C3       0.38746    0.57909    0.39477   1.00
C3       0.43055    0.74804    0.44413   1.00
C3       0.43520    0.58164    0.44600   1.00
H1       0.37549    0.69263    0.36636   1.00
H1       0.36776    0.63194    0.37479   1.00
C5       0.45494    0.68665    0.47509   1.00
C5       0.45878    0.64502    0.47336   1.00
H1       0.37397    0.76049    0.36563   1.00
H1       0.36961    0.56409    0.37593   1.00
H1       0.44519    0.76448    0.46402   1.00
H1       0.45243    0.56652    0.46485   1.00
C6       0.47405    0.70985    0.50748   1.00
C6       0.48761    0.62381    0.49927   1.00
H2       0.45345    0.73155    0.51825   1.00
H2       0.50289    0.60190    0.48203   1.00
H2       0.47882    0.69214    0.53335   1.00
H2       0.51146    0.64272    0.50820   1.00
C6       0.51371    0.72894    0.49500   1.00
C6       0.46834    0.60558    0.53654   1.00
H2       0.51061    0.74208    0.46610   1.00
H2       0.44104    0.59117    0.52848   1.00
C6       0.53167    0.76041    0.52282   1.00
C6       0.49320    0.57589    0.56078   1.00
H2       0.53502    0.70551    0.49133   1.00
H2       0.45982    0.62954    0.55577   1.00
C6       0.50600    0.79765    0.52474   1.00
C6       0.50130    0.53792    0.53750   1.00
C6       0.53766    0.74426    0.56462   1.00
C6       0.53247    0.59393    0.57403   1.00
C6       0.57220    0.77255    0.50659   1.00
C6       0.46984    0.56446    0.59789   1.00
H2       0.50069    0.80942    0.49560   1.00
H2       0.47415    0.52480    0.52717   1.00
H2       0.47781    0.79170    0.53815   1.00
H2       0.51971    0.54346    0.51220   1.00
H2       0.52006    0.82041    0.54201   1.00
H2       0.51627    0.51637    0.55554   1.00
H2       0.55273    0.76545    0.58302   1.00
H2       0.54830    0.57402    0.59321   1.00
H2       0.50976    0.73775    0.57843   1.00
H2       0.55120    0.60006    0.54906   1.00
H2       0.55498    0.71755    0.56402   1.00
H2       0.52763    0.62115    0.58981   1.00
H2       0.56956    0.78458    0.47720   1.00
H2       0.44193    0.55117    0.59015   1.00
H2       0.58584    0.79475    0.52493   1.00
H2       0.48593    0.54351    0.61570   1.00
H2       0.59195    0.74761    0.50527   1.00
H2       0.46388    0.58998    0.61599   1.00
C4       0.41749    0.91090    0.18475   1.00
C4       0.41903    0.91076    0.14309   1.00
C3       0.38828    0.89032    0.20603   1.00
C3       0.39410    0.88683    0.11996   1.00
C3       0.44596    0.93234    0.20646   1.00
C3       0.44641    0.93526    0.12330   1.00
C2       0.41547    0.90960    0.26905   1.00
C2       0.42080    0.91186    0.05878   1.00
C3       0.38736    0.88948    0.24689   1.00
C3       0.39477    0.88746    0.07909   1.00
C3       0.44413    0.93055    0.24804   1.00
C3       0.44600    0.93520    0.08164   1.00
H1       0.36636    0.87549    0.19263   1.00
H1       0.37479    0.86776    0.13194   1.00
C5       0.47509    0.95494    0.18665   1.00
C5       0.47336    0.95878    0.14502   1.00
H1       0.36563    0.87397    0.26049   1.00
H1       0.37593    0.86961    0.06409   1.00
H1       0.46402    0.94519    0.26448   1.00
H1       0.46485    0.95243    0.06652   1.00
C6       0.50748    0.97405    0.20985   1.00
C6       0.49927    0.98761    0.12381   1.00
H2       0.51825    0.95345    0.23155   1.00
H2       0.48203    1.00289    0.10190   1.00
H2       0.53335    0.97882    0.19214   1.00
H2       0.50820    1.01146    0.14272   1.00
C6       0.49500    1.01371    0.22894   1.00
C6       0.53654    0.96834    0.10558   1.00
H2       0.46610    1.01061    0.24208   1.00
H2       0.52848    0.94104    0.09117   1.00
C6       0.52282    1.03167    0.26041   1.00
C6       0.56078    0.99320    0.07589   1.00
H2       0.49133    1.03502    0.20551   1.00
H2       0.55577    0.95982    0.12954   1.00
C6       0.52474    1.00600    0.29765   1.00
C6       0.53750    1.00130    0.03792   1.00
C6       0.56462    1.03766    0.24426   1.00
C6       0.57403    1.03247    0.09393   1.00
C6       0.50659    1.07220    0.27255   1.00
C6       0.59789    0.96984    0.06446   1.00
H2       0.49560    1.00069    0.30942   1.00
H2       0.52717    0.97415    0.02480   1.00
H2       0.53815    0.97781    0.29170   1.00
H2       0.51220    1.01971    0.04346   1.00
H2       0.54201    1.02006    0.32041   1.00
H2       0.55554    1.01627    0.01637   1.00
H2       0.58302    1.05273    0.26545   1.00
H2       0.59321    1.04830    0.07402   1.00
H2       0.57843    1.00976    0.23775   1.00
H2       0.54906    1.05120    0.10006   1.00
H2       0.56402    1.05498    0.21755   1.00
H2       0.58981    1.02763    0.12115   1.00
H2       0.47720    1.06956    0.28458   1.00
H2       0.59015    0.94193    0.05117   1.00
H2       0.52493    1.08584    0.29475   1.00
H2       0.61570    0.98593    0.04351   1.00
H2       0.50527    1.09195    0.24761   1.00
H2       0.61599    0.96388    0.08998   1.00
C4       0.91749    0.41910    0.64525   1.00
C4       0.91903    0.41924    0.68691   1.00
C3       0.88828    0.43968    0.62397   1.00
C3       0.89410    0.44317    0.71004   1.00
C3       0.94596    0.39766    0.62354   1.00
C3       0.94641    0.39474    0.70670   1.00
C2       0.91547    0.42040    0.56095   1.00
C2       0.92080    0.41814    0.77122   1.00
C3       0.88736    0.44052    0.58311   1.00
C3       0.89477    0.44254    0.75091   1.00
C3       0.94413    0.39945    0.58196   1.00
C3       0.94600    0.39480    0.74836   1.00
H1       0.86636    0.45451    0.63737   1.00
H1       0.87479    0.46224    0.69806   1.00
C5       0.97509    0.37506    0.64335   1.00
C5       0.97336    0.37122    0.68498   1.00
H1       0.86563    0.45603    0.56951   1.00
H1       0.87593    0.46039    0.76591   1.00
H1       0.96402    0.38481    0.56552   1.00
H1       0.96485    0.37757    0.76348   1.00
C6       1.00748    0.35595    0.62015   1.00
C6       0.99927    0.34239    0.70619   1.00
H2       1.01825    0.37655    0.59845   1.00
H2       0.98203    0.32711    0.72810   1.00
H2       1.03335    0.35118    0.63786   1.00
H2       1.00820    0.31854    0.68728   1.00
C6       0.99500    0.31629    0.60106   1.00
C6       1.03654    0.36166    0.72442   1.00
H2       0.96610    0.31939    0.58792   1.00
H2       1.02848    0.38896    0.73883   1.00
C6       1.02282    0.29833    0.56959   1.00
C6       1.06078    0.33680    0.75411   1.00
H2       0.99133    0.29498    0.62449   1.00
H2       1.05577    0.37018    0.70046   1.00
C6       1.02474    0.32400    0.53235   1.00
C6       1.03750    0.32870    0.79208   1.00
C6       1.06462    0.29234    0.58574   1.00
C6       1.07403    0.29753    0.73607   1.00
C6       1.00659    0.25780    0.55745   1.00
C6       1.09789    0.36016    0.76554   1.00
H2       0.99560    0.32931    0.52058   1.00
H2       1.02717    0.35585    0.80520   1.00
H2       1.03815    0.35219    0.53830   1.00
H2       1.01220    0.31029    0.78654   1.00
H2       1.04201    0.30994    0.50959   1.00
H2       1.05554    0.31373    0.81363   1.00
H2       1.08302    0.27727    0.56455   1.00
H2       1.09321    0.28170    0.75598   1.00
H2       1.07843    0.32024    0.59225   1.00
H2       1.04906    0.27880    0.72994   1.00
H2       1.06402    0.27502    0.61245   1.00
H2       1.08981    0.30237    0.70885   1.00
H2       0.97720    0.26044    0.54542   1.00
H2       1.09015    0.38807    0.77883   1.00
H2       1.02493    0.24416    0.53525   1.00
H2       1.11570    0.34407    0.78649   1.00
H2       1.00527    0.23805    0.58239   1.00
H2       1.11599    0.36612    0.74002   1.00
C4       0.91910    0.64525    0.41749   1.00
C4       0.91924    0.68691    0.41903   1.00
C3       0.93968    0.62397    0.38828   1.00
C3       0.94317    0.71004    0.39410   1.00
C3       0.89766    0.62354    0.44596   1.00
C3       0.89474    0.70670    0.44641   1.00
C2       0.92040    0.56095    0.41547   1.00
C2       0.91814    0.77122    0.42080   1.00
C3       0.94052    0.58311    0.38736   1.00
C3       0.94254    0.75091    0.39477   1.00
C3       0.89945    0.58196    0.44413   1.00
C3       0.89480    0.74836    0.44600   1.00
H1       0.95451    0.63737    0.36636   1.00
H1       0.96224    0.69806    0.37479   1.00
C5       0.87506    0.64335    0.47509   1.00
C5       0.87122    0.68498    0.47336   1.00
H1       0.95603    0.56951    0.36563   1.00
H1       0.96039    0.76591    0.37593   1.00
H1       0.88481    0.56552    0.46402   1.00
H1       0.87757    0.76348    0.46485   1.00
C6       0.85595    0.62015    0.50748   1.00
C6       0.84239    0.70619    0.49927   1.00
H2       0.87655    0.59845    0.51825   1.00
H2       0.82711    0.72810    0.48203   1.00
H2       0.85118    0.63786    0.53335   1.00
H2       0.81854    0.68728    0.50820   1.00
C6       0.81629    0.60106    0.49500   1.00
C6       0.86166    0.72442    0.53654   1.00
H2       0.81939    0.58792    0.46610   1.00
H2       0.88896    0.73883    0.52848   1.00
C6       0.79833    0.56959    0.52282   1.00
C6       0.83680    0.75411    0.56078   1.00
H2       0.79498    0.62449    0.49133   1.00
H2       0.87018    0.70046    0.55577   1.00
C6       0.82400    0.53235    0.52474   1.00
C6       0.82870    0.79208    0.53750   1.00
C6       0.79234    0.58574    0.56462   1.00
C6       0.79753    0.73607    0.57403   1.00
C6       0.75780    0.55745    0.50659   1.00
C6       0.86016    0.76554    0.59789   1.00
H2       0.82931    0.52058    0.49560   1.00
H2       0.85585    0.80520    0.52717   1.00
H2       0.85219    0.53830    0.53815   1.00
H2       0.81029    0.78654    0.51220   1.00
H2       0.80994    0.50959    0.54201   1.00
H2       0.81373    0.81363    0.55554   1.00
H2       0.77727    0.56455    0.58302   1.00
H2       0.78170    0.75598    0.59321   1.00
H2       0.82024    0.59225    0.57843   1.00
H2       0.77880    0.72994    0.54906   1.00
H2       0.77502    0.61245    0.56402   1.00
H2       0.80237    0.70885    0.58981   1.00
H2       0.76044    0.54542    0.47720   1.00
H2       0.88807    0.77883    0.59015   1.00
H2       0.74416    0.53525    0.52493   1.00
H2       0.84407    0.78649    0.61570   1.00
H2       0.73805    0.58239    0.50527   1.00
H2       0.86612    0.74002    0.61599   1.00
C4       0.68475    0.41749    0.41090   1.00
C4       0.64309    0.41903    0.41076   1.00
C3       0.70603    0.38828    0.39032   1.00
C3       0.61996    0.39410    0.38683   1.00
C3       0.70646    0.44596    0.43234   1.00
C3       0.62330    0.44641    0.43526   1.00
C2       0.76905    0.41547    0.40960   1.00
C2       0.55878    0.42080    0.41186   1.00
C3       0.74689    0.38736    0.38948   1.00
C3       0.57909    0.39477    0.38746   1.00
C3       0.74804    0.44413    0.43055   1.00
C3       0.58164    0.44600    0.43520   1.00
H1       0.69263    0.36636    0.37549   1.00
H1       0.63194    0.37479    0.36776   1.00
C5       0.68665    0.47509    0.45494   1.00
C5       0.64502    0.47336    0.45878   1.00
H1       0.76049    0.36563    0.37397   1.00
H1       0.56409    0.37593    0.36961   1.00
H1       0.76448    0.46402    0.44519   1.00
H1       0.56652    0.46485    0.45243   1.00
C6       0.70985    0.50748    0.47405   1.00
C6       0.62381    0.49927    0.48761   1.00
H2       0.73155    0.51825    0.45345   1.00
H2       0.60190    0.48203    0.50289   1.00
H2       0.69214    0.53335    0.47882   1.00
H2       0.64272    0.50820    0.51146   1.00
C6       0.72894    0.49500    0.51371   1.00
C6       0.60558    0.53654    0.46834   1.00
H2       0.74208    0.46610    0.51061   1.00
H2       0.59117    0.52848    0.44104   1.00
C6       0.76041    0.52282    0.53167   1.00
C6       0.57589    0.56078    0.49320   1.00
H2       0.70551    0.49133    0.53502   1.00
H2       0.62954    0.55577    0.45982   1.00
C6       0.79765    0.52474    0.50600   1.00
C6       0.53792    0.53750    0.50130   1.00
C6       0.74426    0.56462    0.53766   1.00
C6       0.59393    0.57403    0.53247   1.00
C6       0.77255    0.50659    0.57220   1.00
C6       0.56446    0.59789    0.46984   1.00
H2       0.80942    0.49560    0.50069   1.00
H2       0.52480    0.52717    0.47415   1.00
H2       0.79170    0.53815    0.47781   1.00
H2       0.54346    0.51220    0.51971   1.00
H2       0.82041    0.54201    0.52006   1.00
H2       0.51637    0.55554    0.51627   1.00
H2       0.76545    0.58302    0.55273   1.00
H2       0.57402    0.59321    0.54830   1.00
H2       0.73775    0.57843    0.50976   1.00
H2       0.60006    0.54906    0.55120   1.00
H2       0.71755    0.56402    0.55498   1.00
H2       0.62115    0.58981    0.52763   1.00
H2       0.78458    0.47720    0.56956   1.00
H2       0.55117    0.59015    0.44193   1.00
H2       0.79475    0.52493    0.58584   1.00
H2       0.54351    0.61570    0.48593   1.00
H2       0.74761    0.50527    0.59195   1.00
H2       0.58998    0.61599    0.46388   1.00
C4       1.14525    0.41749    0.41910   1.00
C4       1.18691    0.41903    0.41924   1.00
C3       1.12397    0.38828    0.43968   1.00
C3       1.21004    0.39410    0.44317   1.00
C3       1.12354    0.44596    0.39766   1.00
C3       1.20670    0.44641    0.39474   1.00
C2       1.06095    0.41547    0.42040   1.00
C2       1.27122    0.42080    0.41814   1.00
C3       1.08311    0.38736    0.44052   1.00
C3       1.25091    0.39477    0.44254   1.00
C3       1.08196    0.44413    0.39945   1.00
C3       1.24836    0.44600    0.39480   1.00
H1       1.13737    0.36636    0.45451   1.00
H1       1.19806    0.37479    0.46224   1.00
C5       1.14335    0.47509    0.37506   1.00
C5       1.18498    0.47336    0.37122   1.00
H1       1.06951    0.36563    0.45603   1.00
H1       1.26591    0.37593    0.46039   1.00
H1       1.06552    0.46402    0.38481   1.00
H1       1.26348    0.46485    0.37757   1.00
C6       1.12015    0.50748    0.35595   1.00
C6       1.20619    0.49927    0.34239   1.00
H2       1.09845    0.51825    0.37655   1.00
H2       1.22810    0.48203    0.32711   1.00
H2       1.13786    0.53335    0.35118   1.00
H2       1.18728    0.50820    0.31854   1.00
C6       1.10106    0.49500    0.31629   1.00
C6       1.22442    0.53654    0.36166   1.00
H2       1.08792    0.46610    0.31939   1.00
H2       1.23883    0.52848    0.38896   1.00
C6       1.06959    0.52282    0.29833   1.00
C6       1.25411    0.56078    0.33680   1.00
H2       1.12449    0.49133    0.29498   1.00
H2       1.20046    0.55577    0.37018   1.00
C6       1.03235    0.52474    0.32400   1.00
C6       1.29208    0.53750    0.32870   1.00
C6       1.08574    0.56462    0.29234   1.00
C6       1.23607    0.57403    0.29753   1.00
C6       1.05745    0.50659    0.25780   1.00
C6       1.26554    0.59789    0.36016   1.00
H2       1.02058    0.49560    0.32931   1.00
H2       1.30520    0.52717    0.35585   1.00
H2       1.03830    0.53815    0.35219   1.00
H2       1.28654    0.51220    0.31029   1.00
H2       1.00959    0.54201    0.30994   1.00
H2       1.31363    0.55554    0.31373   1.00
H2       1.06455    0.58302    0.27727   1.00
H2       1.25598    0.59321    0.28170   1.00
H2       1.09225    0.57843    0.32024   1.00
H2       1.22994    0.54906    0.27880   1.00
H2       1.11245    0.56402    0.27502   1.00
H2       1.20885    0.58981    0.30237   1.00
H2       1.04542    0.47720    0.26044   1.00
H2       1.27883    0.59015    0.38807   1.00
H2       1.03525    0.52493    0.24416   1.00
H2       1.28649    0.61570    0.34407   1.00
H2       1.08239    0.50527    0.23805   1.00
H2       1.24002    0.61599    0.36612   1.00
C4       0.91090    0.18475    0.41749   1.00
C4       0.91076    0.14309    0.41903   1.00
C3       0.89032    0.20603    0.38828   1.00
C3       0.88683    0.11996    0.39410   1.00
C3       0.93234    0.20646    0.44596   1.00
C3       0.93526    0.12330    0.44641   1.00
C2       0.90960    0.26905    0.41547   1.00
C2       0.91186    0.05878    0.42080   1.00
C3       0.88948    0.24689    0.38736   1.00
C3       0.88746    0.07909    0.39477   1.00
C3       0.93055    0.24804    0.44413   1.00
C3       0.93520    0.08164    0.44600   1.00
H1       0.87549    0.19263    0.36636   1.00
H1       0.86776    0.13194    0.37479   1.00
C5       0.95494    0.18665    0.47509   1.00
C5       0.95878    0.14502    0.47336   1.00
H1       0.87397    0.26049    0.36563   1.00
H1       0.86961    0.06409    0.37593   1.00
H1       0.94519    0.26448    0.46402   1.00
H1       0.95243    0.06652    0.46485   1.00
C6       0.97405    0.20985    0.50748   1.00
C6       0.98761    0.12381    0.49927   1.00
H2       0.95345    0.23155    0.51825   1.00
H2       1.00289    0.10190    0.48203   1.00
H2       0.97882    0.19214    0.53335   1.00
H2       1.01146    0.14272    0.50820   1.00
C6       1.01371    0.22894    0.49500   1.00
C6       0.96834    0.10558    0.53654   1.00
H2       1.01061    0.24208    0.46610   1.00
H2       0.94104    0.09117    0.52848   1.00
C6       1.03167    0.26041    0.52282   1.00
C6       0.99320    0.07589    0.56078   1.00
H2       1.03502    0.20551    0.49133   1.00
H2       0.95982    0.12954    0.55577   1.00
C6       1.00600    0.29765    0.52474   1.00
C6       1.00130    0.03792    0.53750   1.00
C6       1.03766    0.24426    0.56462   1.00
C6       1.03247    0.09393    0.57403   1.00
C6       1.07220    0.27255    0.50659   1.00
C6       0.96984    0.06446    0.59789   1.00
H2       1.00069    0.30942    0.49560   1.00
H2       0.97415    0.02480    0.52717   1.00
H2       0.97781    0.29170    0.53815   1.00
H2       1.01971    0.04346    0.51220   1.00
H2       1.02006    0.32041    0.54201   1.00
H2       1.01627    0.01637    0.55554   1.00
H2       1.05273    0.26545    0.58302   1.00
H2       1.04830    0.07402    0.59321   1.00
H2       1.00976    0.23775    0.57843   1.00
H2       1.05120    0.10006    0.54906   1.00
H2       1.05498    0.21755    0.56402   1.00
H2       1.02763    0.12115    0.58981   1.00
H2       1.06956    0.28458    0.47720   1.00
H2       0.94193    0.05117    0.59015   1.00
H2       1.08584    0.29475    0.52493   1.00
H2       0.98593    0.04351    0.61570   1.00
H2       1.09195    0.24761    0.50527   1.00
H2       0.96388    0.08998    0.61599   1.00
C4       0.91749    0.41090    0.18475   1.00
C4       0.91903    0.41076    0.14309   1.00
C3       0.88828    0.39032    0.20603   1.00
C3       0.89410    0.38683    0.11996   1.00
C3       0.94596    0.43234    0.20646   1.00
C3       0.94641    0.43526    0.12330   1.00
C2       0.91547    0.40960    0.26905   1.00
C2       0.92080    0.41186    0.05878   1.00
C3       0.88736    0.38948    0.24689   1.00
C3       0.89477    0.38746    0.07909   1.00
C3       0.94413    0.43055    0.24804   1.00
C3       0.94600    0.43520    0.08164   1.00
H1       0.86636    0.37549    0.19263   1.00
H1       0.87479    0.36776    0.13194   1.00
C5       0.97509    0.45494    0.18665   1.00
C5       0.97336    0.45878    0.14502   1.00
H1       0.86563    0.37397    0.26049   1.00
H1       0.87593    0.36961    0.06409   1.00
H1       0.96402    0.44519    0.26448   1.00
H1       0.96485    0.45243    0.06652   1.00
C6       1.00748    0.47405    0.20985   1.00
C6       0.99927    0.48761    0.12381   1.00
H2       1.01825    0.45345    0.23155   1.00
H2       0.98203    0.50289    0.10190   1.00
H2       1.03335    0.47882    0.19214   1.00
H2       1.00820    0.51146    0.14272   1.00
C6       0.99500    0.51371    0.22894   1.00
C6       1.03654    0.46834    0.10558   1.00
H2       0.96610    0.51061    0.24208   1.00
H2       1.02848    0.44104    0.09117   1.00
C6       1.02282    0.53167    0.26041   1.00
C6       1.06078    0.49320    0.07589   1.00
H2       0.99133    0.53502    0.20551   1.00
H2       1.05577    0.45982    0.12954   1.00
C6       1.02474    0.50600    0.29765   1.00
C6       1.03750    0.50130    0.03792   1.00
C6       1.06462    0.53766    0.24426   1.00
C6       1.07403    0.53247    0.09393   1.00
C6       1.00659    0.57220    0.27255   1.00
C6       1.09789    0.46984    0.06446   1.00
H2       0.99560    0.50069    0.30942   1.00
H2       1.02717    0.47415    0.02480   1.00
H2       1.03815    0.47781    0.29170   1.00
H2       1.01220    0.51971    0.04346   1.00
H2       1.04201    0.52006    0.32041   1.00
H2       1.05554    0.51627    0.01637   1.00
H2       1.08302    0.55273    0.26545   1.00
H2       1.09321    0.54830    0.07402   1.00
H2       1.07843    0.50976    0.23775   1.00
H2       1.04906    0.55120    0.10006   1.00
H2       1.06402    0.55498    0.21755   1.00
H2       1.08981    0.52763    0.12115   1.00
H2       0.97720    0.56956    0.28458   1.00
H2       1.09015    0.44193    0.05117   1.00
H2       1.02493    0.58584    0.29475   1.00
H2       1.11570    0.48593    0.04351   1.00
H2       1.00527    0.59195    0.24761   1.00
H2       1.11599    0.46388    0.08998   1.00
