data_IRMOF10_SG202_interpen_Ligand4cp_label_h.

_audit_creation_method             'generated by an auxiliary program of Tobunporous'

_symmetry_space_group_name_H-M     'P 1'
_symmetry_Int_Tables_number        1
_symmetry_cell_setting             triclinic

_cell_length_a                    34.2800
_cell_length_b                    34.2800
_cell_length_c                    34.2800
_cell_angle_alpha                 90.0000
_cell_angle_beta                  90.0000
_cell_angle_gamma                 90.0000

loop_
_atom_site_label
_atom_site_fract_x
_atom_site_fract_y
_atom_site_fract_z
_atom_site_occupancy
O1       0.75000    0.75000    0.75000   1.00
Zn1      0.71720    0.78280    0.78280   1.00
Zn1      0.78280    0.71720    0.78280   1.00
Zn1      0.78280    0.78280    0.71720   1.00
Zn1      0.71720    0.71720    0.71720   1.00
O2       0.72650    0.77350    0.83820   1.00
O2       0.72650    0.83820    0.77350   1.00
O2       0.66180    0.77350    0.77350   1.00
O2       0.77350    0.72650    0.83820   1.00
O2       0.83820    0.72650    0.77350   1.00
O2       0.77350    0.66180    0.77350   1.00
O2       0.77350    0.83820    0.72650   1.00
O2       0.83820    0.77350    0.72650   1.00
O2       0.77350    0.77350    0.66180   1.00
O2       0.66180    0.72650    0.72650   1.00
O2       0.72650    0.66180    0.72650   1.00
O2       0.72650    0.72650    0.66180   1.00
C1       0.75000    0.75000    0.85520   1.00
C1       0.75000    0.85520    0.75000   1.00
C1       0.64480    0.75000    0.75000   1.00
C1       0.85520    0.75000    0.75000   1.00
C1       0.75000    0.64480    0.75000   1.00
C1       0.75000    0.75000    0.64480   1.00
O1       0.25000    0.25000    0.75000   1.00
Zn1      0.21720    0.28280    0.78280   1.00
Zn1      0.28280    0.21720    0.78280   1.00
Zn1      0.28280    0.28280    0.71720   1.00
Zn1      0.21720    0.21720    0.71720   1.00
O2       0.22650    0.27350    0.83820   1.00
O2       0.22650    0.33820    0.77350   1.00
O2       0.16180    0.27350    0.77350   1.00
O2       0.27350    0.22650    0.83820   1.00
O2       0.33820    0.22650    0.77350   1.00
O2       0.27350    0.16180    0.77350   1.00
O2       0.27350    0.33820    0.72650   1.00
O2       0.33820    0.27350    0.72650   1.00
O2       0.27350    0.27350    0.66180   1.00
O2       0.16180    0.22650    0.72650   1.00
O2       0.22650    0.16180    0.72650   1.00
O2       0.22650    0.22650    0.66180   1.00
C1       0.25000    0.25000    0.85520   1.00
C1       0.25000    0.35520    0.75000   1.00
C1       0.14480    0.25000    0.75000   1.00
C1       0.35520    0.25000    0.75000   1.00
C1       0.25000    0.14480    0.75000   1.00
C1       0.25000    0.25000    0.64480   1.00
O1       0.25000    0.75000    0.25000   1.00
Zn1      0.21720    0.78280    0.28280   1.00
Zn1      0.28280    0.71720    0.28280   1.00
Zn1      0.28280    0.78280    0.21720   1.00
Zn1      0.21720    0.71720    0.21720   1.00
O2       0.22650    0.77350    0.33820   1.00
O2       0.22650    0.83820    0.27350   1.00
O2       0.16180    0.77350    0.27350   1.00
O2       0.27350    0.72650    0.33820   1.00
O2       0.33820    0.72650    0.27350   1.00
O2       0.27350    0.66180    0.27350   1.00
O2       0.27350    0.83820    0.22650   1.00
O2       0.33820    0.77350    0.22650   1.00
O2       0.27350    0.77350    0.16180   1.00
O2       0.16180    0.72650    0.22650   1.00
O2       0.22650    0.66180    0.22650   1.00
O2       0.22650    0.72650    0.16180   1.00
C1       0.25000    0.75000    0.35520   1.00
C1       0.25000    0.85520    0.25000   1.00
C1       0.14480    0.75000    0.25000   1.00
C1       0.35520    0.75000    0.25000   1.00
C1       0.25000    0.64480    0.25000   1.00
C1       0.25000    0.75000    0.14480   1.00
O1       0.75000    0.25000    0.25000   1.00
Zn1      0.71720    0.28280    0.28280   1.00
Zn1      0.78280    0.21720    0.28280   1.00
Zn1      0.78280    0.28280    0.21720   1.00
Zn1      0.71720    0.21720    0.21720   1.00
O2       0.72650    0.27350    0.33820   1.00
O2       0.72650    0.33820    0.27350   1.00
O2       0.66180    0.27350    0.27350   1.00
O2       0.77350    0.22650    0.33820   1.00
O2       0.83820    0.22650    0.27350   1.00
O2       0.77350    0.16180    0.27350   1.00
O2       0.77350    0.33820    0.22650   1.00
O2       0.83820    0.27350    0.22650   1.00
O2       0.77350    0.27350    0.16180   1.00
O2       0.66180    0.22650    0.22650   1.00
O2       0.72650    0.16180    0.22650   1.00
O2       0.72650    0.22650    0.16180   1.00
C1       0.75000    0.25000    0.35520   1.00
C1       0.75000    0.35520    0.25000   1.00
C1       0.64480    0.25000    0.25000   1.00
C1       0.85520    0.25000    0.25000   1.00
C1       0.75000    0.14480    0.25000   1.00
C1       0.75000    0.25000    0.14480   1.00
O1       0.25000    0.25000    0.25000   1.00
Zn1      0.28280    0.21720    0.21720   1.00
Zn1      0.21720    0.28280    0.21720   1.00
Zn1      0.21720    0.21720    0.28280   1.00
Zn1      0.28280    0.28280    0.28280   1.00
O2       0.27350    0.22650    0.16180   1.00
O2       0.27350    0.16180    0.22650   1.00
O2       0.33820    0.22650    0.22650   1.00
O2       0.22650    0.27350    0.16180   1.00
O2       0.16180    0.27350    0.22650   1.00
O2       0.22650    0.33820    0.22650   1.00
O2       0.22650    0.16180    0.27350   1.00
O2       0.16180    0.22650    0.27350   1.00
O2       0.22650    0.22650    0.33820   1.00
O2       0.33820    0.27350    0.27350   1.00
O2       0.27350    0.33820    0.27350   1.00
O2       0.27350    0.27350    0.33820   1.00
C1       0.25000    0.25000    0.14480   1.00
C1       0.25000    0.14480    0.25000   1.00
C1       0.35520    0.25000    0.25000   1.00
C1       0.14480    0.25000    0.25000   1.00
C1       0.25000    0.35520    0.25000   1.00
C1       0.25000    0.25000    0.35520   1.00
O1       0.75000    0.75000    0.25000   1.00
Zn1      0.78280    0.71720    0.21720   1.00
Zn1      0.71720    0.78280    0.21720   1.00
Zn1      0.71720    0.71720    0.28280   1.00
Zn1      0.78280    0.78280    0.28280   1.00
O2       0.77350    0.72650    0.16180   1.00
O2       0.77350    0.66180    0.22650   1.00
O2       0.83820    0.72650    0.22650   1.00
O2       0.72650    0.77350    0.16180   1.00
O2       0.66180    0.77350    0.22650   1.00
O2       0.72650    0.83820    0.22650   1.00
O2       0.72650    0.66180    0.27350   1.00
O2       0.66180    0.72650    0.27350   1.00
O2       0.72650    0.72650    0.33820   1.00
O2       0.83820    0.77350    0.27350   1.00
O2       0.77350    0.83820    0.27350   1.00
O2       0.77350    0.77350    0.33820   1.00
C1       0.75000    0.75000    0.14480   1.00
C1       0.75000    0.64480    0.25000   1.00
C1       0.85520    0.75000    0.25000   1.00
C1       0.64480    0.75000    0.25000   1.00
C1       0.75000    0.85520    0.25000   1.00
C1       0.75000    0.75000    0.35520   1.00
O1       0.75000    0.25000    0.75000   1.00
Zn1      0.78280    0.21720    0.71720   1.00
Zn1      0.71720    0.28280    0.71720   1.00
Zn1      0.71720    0.21720    0.78280   1.00
Zn1      0.78280    0.28280    0.78280   1.00
O2       0.77350    0.22650    0.66180   1.00
O2       0.77350    0.16180    0.72650   1.00
O2       0.83820    0.22650    0.72650   1.00
O2       0.72650    0.27350    0.66180   1.00
O2       0.66180    0.27350    0.72650   1.00
O2       0.72650    0.33820    0.72650   1.00
O2       0.72650    0.16180    0.77350   1.00
O2       0.66180    0.22650    0.77350   1.00
O2       0.72650    0.22650    0.83820   1.00
O2       0.83820    0.27350    0.77350   1.00
O2       0.77350    0.33820    0.77350   1.00
O2       0.77350    0.27350    0.83820   1.00
C1       0.75000    0.25000    0.64480   1.00
C1       0.75000    0.14480    0.75000   1.00
C1       0.85520    0.25000    0.75000   1.00
C1       0.64480    0.25000    0.75000   1.00
C1       0.75000    0.35520    0.75000   1.00
C1       0.75000    0.25000    0.85520   1.00
O1       0.25000    0.75000    0.75000   1.00
Zn1      0.28280    0.71720    0.71720   1.00
Zn1      0.21720    0.78280    0.71720   1.00
Zn1      0.21720    0.71720    0.78280   1.00
Zn1      0.28280    0.78280    0.78280   1.00
O2       0.27350    0.72650    0.66180   1.00
O2       0.27350    0.66180    0.72650   1.00
O2       0.33820    0.72650    0.72650   1.00
O2       0.22650    0.77350    0.66180   1.00
O2       0.16180    0.77350    0.72650   1.00
O2       0.22650    0.83820    0.72650   1.00
O2       0.22650    0.66180    0.77350   1.00
O2       0.16180    0.72650    0.77350   1.00
O2       0.22650    0.72650    0.83820   1.00
O2       0.33820    0.77350    0.77350   1.00
O2       0.27350    0.83820    0.77350   1.00
O2       0.27350    0.77350    0.83820   1.00
C1       0.25000    0.75000    0.64480   1.00
C1       0.25000    0.64480    0.75000   1.00
C1       0.35520    0.75000    0.75000   1.00
C1       0.14480    0.75000    0.75000   1.00
C1       0.25000    0.85520    0.75000   1.00
C1       0.25000    0.75000    0.85520   1.00
O1       0.91500    0.91500    0.91500   1.00
Zn1      0.88220    0.94780    0.94780   1.00
Zn1      0.94780    0.88220    0.94780   1.00
Zn1      0.94780    0.94780    0.88220   1.00
Zn1      0.88220    0.88220    0.88220   1.00
O2       0.89150    0.93850    1.00320   1.00
O2       0.89150    1.00320    0.93850   1.00
O2       0.82680    0.93850    0.93850   1.00
O2       0.93850    0.89150    1.00320   1.00
O2       1.00320    0.89150    0.93850   1.00
O2       0.93850    0.82680    0.93850   1.00
O2       0.93850    1.00320    0.89150   1.00
O2       1.00320    0.93850    0.89150   1.00
O2       0.93850    0.93850    0.82680   1.00
O2       0.82680    0.89150    0.89150   1.00
O2       0.89150    0.82680    0.89150   1.00
O2       0.89150    0.89150    0.82680   1.00
C1       0.91500    0.91500    1.02020   1.00
C1       0.91500    1.02020    0.91500   1.00
C1       0.80980    0.91500    0.91500   1.00
C1       1.02020    0.91500    0.91500   1.00
C1       0.91500    0.80980    0.91500   1.00
C1       0.91500    0.91500    0.80980   1.00
O1       0.41500    0.41500    0.91500   1.00
Zn1      0.38220    0.44780    0.94780   1.00
Zn1      0.44780    0.38220    0.94780   1.00
Zn1      0.44780    0.44780    0.88220   1.00
Zn1      0.38220    0.38220    0.88220   1.00
O2       0.39150    0.43850    1.00320   1.00
O2       0.39150    0.50320    0.93850   1.00
O2       0.32680    0.43850    0.93850   1.00
O2       0.43850    0.39150    1.00320   1.00
O2       0.50320    0.39150    0.93850   1.00
O2       0.43850    0.32680    0.93850   1.00
O2       0.43850    0.50320    0.89150   1.00
O2       0.50320    0.43850    0.89150   1.00
O2       0.43850    0.43850    0.82680   1.00
O2       0.32680    0.39150    0.89150   1.00
O2       0.39150    0.32680    0.89150   1.00
O2       0.39150    0.39150    0.82680   1.00
C1       0.41500    0.41500    1.02020   1.00
C1       0.41500    0.52020    0.91500   1.00
C1       0.30980    0.41500    0.91500   1.00
C1       0.52020    0.41500    0.91500   1.00
C1       0.41500    0.30980    0.91500   1.00
C1       0.41500    0.41500    0.80980   1.00
O1       0.41500    0.91500    0.41500   1.00
Zn1      0.38220    0.94780    0.44780   1.00
Zn1      0.44780    0.88220    0.44780   1.00
Zn1      0.44780    0.94780    0.38220   1.00
Zn1      0.38220    0.88220    0.38220   1.00
O2       0.39150    0.93850    0.50320   1.00
O2       0.39150    1.00320    0.43850   1.00
O2       0.32680    0.93850    0.43850   1.00
O2       0.43850    0.89150    0.50320   1.00
O2       0.50320    0.89150    0.43850   1.00
O2       0.43850    0.82680    0.43850   1.00
O2       0.43850    1.00320    0.39150   1.00
O2       0.50320    0.93850    0.39150   1.00
O2       0.43850    0.93850    0.32680   1.00
O2       0.32680    0.89150    0.39150   1.00
O2       0.39150    0.82680    0.39150   1.00
O2       0.39150    0.89150    0.32680   1.00
C1       0.41500    0.91500    0.52020   1.00
C1       0.41500    1.02020    0.41500   1.00
C1       0.30980    0.91500    0.41500   1.00
C1       0.52020    0.91500    0.41500   1.00
C1       0.41500    0.80980    0.41500   1.00
C1       0.41500    0.91500    0.30980   1.00
O1       0.91500    0.41500    0.41500   1.00
Zn1      0.88220    0.44780    0.44780   1.00
Zn1      0.94780    0.38220    0.44780   1.00
Zn1      0.94780    0.44780    0.38220   1.00
Zn1      0.88220    0.38220    0.38220   1.00
O2       0.89150    0.43850    0.50320   1.00
O2       0.89150    0.50320    0.43850   1.00
O2       0.82680    0.43850    0.43850   1.00
O2       0.93850    0.39150    0.50320   1.00
O2       1.00320    0.39150    0.43850   1.00
O2       0.93850    0.32680    0.43850   1.00
O2       0.93850    0.50320    0.39150   1.00
O2       1.00320    0.43850    0.39150   1.00
O2       0.93850    0.43850    0.32680   1.00
O2       0.82680    0.39150    0.39150   1.00
O2       0.89150    0.32680    0.39150   1.00
O2       0.89150    0.39150    0.32680   1.00
C1       0.91500    0.41500    0.52020   1.00
C1       0.91500    0.52020    0.41500   1.00
C1       0.80980    0.41500    0.41500   1.00
C1       1.02020    0.41500    0.41500   1.00
C1       0.91500    0.30980    0.41500   1.00
C1       0.91500    0.41500    0.30980   1.00
O1       0.41500    0.41500    0.41500   1.00
Zn1      0.44780    0.38220    0.38220   1.00
Zn1      0.38220    0.44780    0.38220   1.00
Zn1      0.38220    0.38220    0.44780   1.00
Zn1      0.44780    0.44780    0.44780   1.00
O2       0.43850    0.39150    0.32680   1.00
O2       0.43850    0.32680    0.39150   1.00
O2       0.50320    0.39150    0.39150   1.00
O2       0.39150    0.43850    0.32680   1.00
O2       0.32680    0.43850    0.39150   1.00
O2       0.39150    0.50320    0.39150   1.00
O2       0.39150    0.32680    0.43850   1.00
O2       0.32680    0.39150    0.43850   1.00
O2       0.39150    0.39150    0.50320   1.00
O2       0.50320    0.43850    0.43850   1.00
O2       0.43850    0.50320    0.43850   1.00
O2       0.43850    0.43850    0.50320   1.00
C1       0.41500    0.41500    0.30980   1.00
C1       0.41500    0.30980    0.41500   1.00
C1       0.52020    0.41500    0.41500   1.00
C1       0.30980    0.41500    0.41500   1.00
C1       0.41500    0.52020    0.41500   1.00
C1       0.41500    0.41500    0.52020   1.00
O1       0.91500    0.91500    0.41500   1.00
Zn1      0.94780    0.88220    0.38220   1.00
Zn1      0.88220    0.94780    0.38220   1.00
Zn1      0.88220    0.88220    0.44780   1.00
Zn1      0.94780    0.94780    0.44780   1.00
O2       0.93850    0.89150    0.32680   1.00
O2       0.93850    0.82680    0.39150   1.00
O2       1.00320    0.89150    0.39150   1.00
O2       0.89150    0.93850    0.32680   1.00
O2       0.82680    0.93850    0.39150   1.00
O2       0.89150    1.00320    0.39150   1.00
O2       0.89150    0.82680    0.43850   1.00
O2       0.82680    0.89150    0.43850   1.00
O2       0.89150    0.89150    0.50320   1.00
O2       1.00320    0.93850    0.43850   1.00
O2       0.93850    1.00320    0.43850   1.00
O2       0.93850    0.93850    0.50320   1.00
C1       0.91500    0.91500    0.30980   1.00
C1       0.91500    0.80980    0.41500   1.00
C1       1.02020    0.91500    0.41500   1.00
C1       0.80980    0.91500    0.41500   1.00
C1       0.91500    1.02020    0.41500   1.00
C1       0.91500    0.91500    0.52020   1.00
O1       0.91500    0.41500    0.91500   1.00
Zn1      0.94780    0.38220    0.88220   1.00
Zn1      0.88220    0.44780    0.88220   1.00
Zn1      0.88220    0.38220    0.94780   1.00
Zn1      0.94780    0.44780    0.94780   1.00
O2       0.93850    0.39150    0.82680   1.00
O2       0.93850    0.32680    0.89150   1.00
O2       1.00320    0.39150    0.89150   1.00
O2       0.89150    0.43850    0.82680   1.00
O2       0.82680    0.43850    0.89150   1.00
O2       0.89150    0.50320    0.89150   1.00
O2       0.89150    0.32680    0.93850   1.00
O2       0.82680    0.39150    0.93850   1.00
O2       0.89150    0.39150    1.00320   1.00
O2       1.00320    0.43850    0.93850   1.00
O2       0.93850    0.50320    0.93850   1.00
O2       0.93850    0.43850    1.00320   1.00
C1       0.91500    0.41500    0.80980   1.00
C1       0.91500    0.30980    0.91500   1.00
C1       1.02020    0.41500    0.91500   1.00
C1       0.80980    0.41500    0.91500   1.00
C1       0.91500    0.52020    0.91500   1.00
C1       0.91500    0.41500    1.02020   1.00
O1       0.41500    0.91500    0.91500   1.00
Zn1      0.44780    0.88220    0.88220   1.00
Zn1      0.38220    0.94780    0.88220   1.00
Zn1      0.38220    0.88220    0.94780   1.00
Zn1      0.44780    0.94780    0.94780   1.00
O2       0.43850    0.89150    0.82680   1.00
O2       0.43850    0.82680    0.89150   1.00
O2       0.50320    0.89150    0.89150   1.00
O2       0.39150    0.93850    0.82680   1.00
O2       0.32680    0.93850    0.89150   1.00
O2       0.39150    1.00320    0.89150   1.00
O2       0.39150    0.82680    0.93850   1.00
O2       0.32680    0.89150    0.93850   1.00
O2       0.39150    0.89150    1.00320   1.00
O2       0.50320    0.93850    0.93850   1.00
O2       0.43850    1.00320    0.93850   1.00
O2       0.43850    0.93850    1.00320   1.00
C1       0.41500    0.91500    0.80980   1.00
C1       0.41500    0.80980    0.91500   1.00
C1       0.52020    0.91500    0.91500   1.00
C1       0.30980    0.91500    0.91500   1.00
C1       0.41500    1.02020    0.91500   1.00
C1       0.41500    0.91500    1.02020   1.00
C4       0.74654    0.74669    0.98025   1.00
C4       0.74501    0.74695    1.02191   1.00
C3       0.76942    0.71925    0.95897   1.00
C3       0.76289    0.71738    1.04504   1.00
C3       0.72458    0.77476    0.95854   1.00
C3       0.72491    0.77770    1.04170   1.00
C2       0.74815    0.74490    0.89595   1.00
C2       0.74358    0.74847    1.10622   1.00
C3       0.77010    0.71820    0.91811   1.00
C3       0.76241    0.71816    1.08591   1.00
C3       0.72589    0.77256    0.91696   1.00
C3       0.72528    0.77754    1.08336   1.00
H1       0.78675    0.69924    0.97237   1.00
H1       0.77661    0.69396    1.03306   1.00
C5       0.70229    0.80413    0.97835   1.00
C5       0.70496    0.80739    1.01998   1.00
H1       0.78707    0.69759    0.90451   1.00
H1       0.77599    0.69605    1.10091   1.00
H1       0.71046    0.79185    0.90052   1.00
H1       0.71154    0.79905    1.09848   1.00
C6       0.67596    0.83097    0.95515   1.00
C6       0.68739    0.84195    1.04119   1.00
H2       0.66022    0.81387    0.93345   1.00
H2       0.70800    0.85225    1.06310   1.00
H2       0.65220    0.84227    0.97286   1.00
H2       0.68495    0.86730    1.02228   1.00
C6       0.69827    0.86605    0.93606   1.00
C6       0.64641    0.83298    1.05942   1.00
H2       0.72539    0.85558    0.92292   1.00
H2       0.64713    0.80453    1.07383   1.00
C6       0.67605    0.89060    0.90459   1.00
C6       0.62942    0.86326    1.08911   1.00
H2       0.70733    0.88568    0.95949   1.00
H2       0.62563    0.82973    1.03546   1.00
C6       0.66755    0.86630    0.86735   1.00
C6       0.65401    0.86506    1.12708   1.00
C6       0.63723    0.90721    0.92074   1.00
C6       0.62679    0.90463    1.07107   1.00
C6       0.70222    0.92555    0.89245   1.00
C6       0.58753    0.85031    1.10054   1.00
H2       0.69432    0.85363    0.85558   1.00
H2       0.65696    0.83617    1.14020   1.00
H2       0.64730    0.84255    0.87330   1.00
H2       0.68321    0.87630    1.12154   1.00
H2       0.65451    0.88436    0.84459   1.00
H2       0.64046    0.88419    1.14863   1.00
H2       0.62336    0.92652    0.89955   1.00
H2       0.61236    0.92489    1.09098   1.00
H2       0.61667    0.88383    0.92725   1.00
H2       0.65575    0.91626    1.06494   1.00
H2       0.64229    0.92377    0.94745   1.00
H2       0.61030    0.90404    1.04385   1.00
H2       0.72992    0.91539    0.88042   1.00
H2       0.58779    0.82135    1.11383   1.00
H2       0.68803    0.94347    0.87025   1.00
H2       0.57449    0.87046    1.12149   1.00
H2       0.70860    0.94429    0.91739   1.00
H2       0.56851    0.84924    1.07502   1.00
C4       0.74669    0.98025    0.74654   1.00
C4       0.74695    1.02191    0.74501   1.00
C3       0.71925    0.95897    0.76942   1.00
C3       0.71738    1.04504    0.76289   1.00
C3       0.77476    0.95854    0.72458   1.00
C3       0.77770    1.04170    0.72491   1.00
C2       0.74490    0.89595    0.74815   1.00
C2       0.74847    1.10622    0.74358   1.00
C3       0.71820    0.91811    0.77010   1.00
C3       0.71816    1.08591    0.76241   1.00
C3       0.77256    0.91696    0.72589   1.00
C3       0.77754    1.08336    0.72528   1.00
H1       0.69924    0.97237    0.78675   1.00
H1       0.69396    1.03306    0.77661   1.00
C5       0.80413    0.97835    0.70229   1.00
C5       0.80739    1.01998    0.70496   1.00
H1       0.69759    0.90451    0.78707   1.00
H1       0.69605    1.10091    0.77599   1.00
H1       0.79185    0.90052    0.71046   1.00
H1       0.79905    1.09848    0.71154   1.00
C6       0.83097    0.95515    0.67596   1.00
C6       0.84195    1.04119    0.68739   1.00
H2       0.81387    0.93345    0.66022   1.00
H2       0.85225    1.06310    0.70800   1.00
H2       0.84227    0.97286    0.65220   1.00
H2       0.86730    1.02228    0.68495   1.00
C6       0.86605    0.93606    0.69827   1.00
C6       0.83298    1.05942    0.64641   1.00
H2       0.85558    0.92292    0.72539   1.00
H2       0.80453    1.07383    0.64713   1.00
C6       0.89060    0.90459    0.67605   1.00
C6       0.86326    1.08911    0.62942   1.00
H2       0.88568    0.95949    0.70733   1.00
H2       0.82973    1.03546    0.62563   1.00
C6       0.86630    0.86735    0.66755   1.00
C6       0.86506    1.12708    0.65401   1.00
C6       0.90721    0.92074    0.63723   1.00
C6       0.90463    1.07107    0.62679   1.00
C6       0.92555    0.89245    0.70222   1.00
C6       0.85031    1.10054    0.58753   1.00
H2       0.85363    0.85558    0.69432   1.00
H2       0.83617    1.14020    0.65696   1.00
H2       0.84255    0.87330    0.64730   1.00
H2       0.87630    1.12154    0.68321   1.00
H2       0.88436    0.84459    0.65451   1.00
H2       0.88419    1.14863    0.64046   1.00
H2       0.92652    0.89955    0.62336   1.00
H2       0.92489    1.09098    0.61236   1.00
H2       0.88383    0.92725    0.61667   1.00
H2       0.91626    1.06494    0.65575   1.00
H2       0.92377    0.94745    0.64229   1.00
H2       0.90404    1.04385    0.61030   1.00
H2       0.91539    0.88042    0.72992   1.00
H2       0.82135    1.11383    0.58779   1.00
H2       0.94347    0.87025    0.68803   1.00
H2       0.87046    1.12149    0.57449   1.00
H2       0.94429    0.91739    0.70860   1.00
H2       0.84924    1.07502    0.56851   1.00
C4       0.51975    0.74654    0.75331   1.00
C4       0.47809    0.74501    0.75305   1.00
C3       0.54103    0.76942    0.78075   1.00
C3       0.45496    0.76289    0.78262   1.00
C3       0.54146    0.72458    0.72524   1.00
C3       0.45830    0.72491    0.72230   1.00
C2       0.60405    0.74815    0.75510   1.00
C2       0.39378    0.74358    0.75153   1.00
C3       0.58189    0.77010    0.78180   1.00
C3       0.41409    0.76241    0.78184   1.00
C3       0.58304    0.72589    0.72744   1.00
C3       0.41664    0.72528    0.72246   1.00
H1       0.52763    0.78675    0.80076   1.00
H1       0.46694    0.77661    0.80604   1.00
C5       0.52165    0.70229    0.69587   1.00
C5       0.48002    0.70496    0.69261   1.00
H1       0.59549    0.78707    0.80241   1.00
H1       0.39909    0.77599    0.80395   1.00
H1       0.59948    0.71046    0.70815   1.00
H1       0.40152    0.71154    0.70095   1.00
C6       0.54485    0.67596    0.66903   1.00
C6       0.45881    0.68739    0.65805   1.00
H2       0.56655    0.66022    0.68613   1.00
H2       0.43690    0.70800    0.64775   1.00
H2       0.52714    0.65220    0.65773   1.00
H2       0.47772    0.68495    0.63270   1.00
C6       0.56394    0.69827    0.63395   1.00
C6       0.44058    0.64641    0.66702   1.00
H2       0.57708    0.72539    0.64442   1.00
H2       0.42617    0.64713    0.69547   1.00
C6       0.59541    0.67605    0.60940   1.00
C6       0.41089    0.62942    0.63674   1.00
H2       0.54051    0.70733    0.61432   1.00
H2       0.46454    0.62563    0.67027   1.00
C6       0.63265    0.66755    0.63370   1.00
C6       0.37292    0.65401    0.63494   1.00
C6       0.57926    0.63723    0.59279   1.00
C6       0.42893    0.62679    0.59537   1.00
C6       0.60755    0.70222    0.57445   1.00
C6       0.39946    0.58753    0.64969   1.00
H2       0.64442    0.69432    0.64637   1.00
H2       0.35980    0.65696    0.66383   1.00
H2       0.62670    0.64730    0.65745   1.00
H2       0.37846    0.68321    0.62370   1.00
H2       0.65541    0.65451    0.61564   1.00
H2       0.35137    0.64046    0.61581   1.00
H2       0.60045    0.62336    0.57348   1.00
H2       0.40902    0.61236    0.57511   1.00
H2       0.57275    0.61667    0.61617   1.00
H2       0.43506    0.65575    0.58374   1.00
H2       0.55255    0.64229    0.57623   1.00
H2       0.45615    0.61030    0.59596   1.00
H2       0.61958    0.72992    0.58461   1.00
H2       0.38617    0.58779    0.67865   1.00
H2       0.62975    0.68803    0.55653   1.00
H2       0.37851    0.57449    0.62954   1.00
H2       0.58261    0.70860    0.55571   1.00
H2       0.42498    0.56851    0.65076   1.00
C4       0.98025    0.74654    0.74669   1.00
C4       1.02191    0.74501    0.74695   1.00
C3       0.95897    0.76942    0.71925   1.00
C3       1.04504    0.76289    0.71738   1.00
C3       0.95854    0.72458    0.77476   1.00
C3       1.04170    0.72491    0.77770   1.00
C2       0.89595    0.74815    0.74490   1.00
C2       1.10622    0.74358    0.74847   1.00
C3       0.91811    0.77010    0.71820   1.00
C3       1.08591    0.76241    0.71816   1.00
C3       0.91696    0.72589    0.77256   1.00
C3       1.08336    0.72528    0.77754   1.00
H1       0.97237    0.78675    0.69924   1.00
H1       1.03306    0.77661    0.69396   1.00
C5       0.97835    0.70229    0.80413   1.00
C5       1.01998    0.70496    0.80739   1.00
H1       0.90451    0.78707    0.69759   1.00
H1       1.10091    0.77599    0.69605   1.00
H1       0.90052    0.71046    0.79185   1.00
H1       1.09848    0.71154    0.79905   1.00
C6       0.95515    0.67596    0.83097   1.00
C6       1.04119    0.68739    0.84195   1.00
H2       0.93345    0.66022    0.81387   1.00
H2       1.06310    0.70800    0.85225   1.00
H2       0.97286    0.65220    0.84227   1.00
H2       1.02228    0.68495    0.86730   1.00
C6       0.93606    0.69827    0.86605   1.00
C6       1.05942    0.64641    0.83298   1.00
H2       0.92292    0.72539    0.85558   1.00
H2       1.07383    0.64713    0.80453   1.00
C6       0.90459    0.67605    0.89060   1.00
C6       1.08911    0.62942    0.86326   1.00
H2       0.95949    0.70733    0.88568   1.00
H2       1.03546    0.62563    0.82973   1.00
C6       0.86735    0.66755    0.86630   1.00
C6       1.12708    0.65401    0.86506   1.00
C6       0.92074    0.63723    0.90721   1.00
C6       1.07107    0.62679    0.90463   1.00
C6       0.89245    0.70222    0.92555   1.00
C6       1.10054    0.58753    0.85031   1.00
H2       0.85558    0.69432    0.85363   1.00
H2       1.14020    0.65696    0.83617   1.00
H2       0.87330    0.64730    0.84255   1.00
H2       1.12154    0.68321    0.87630   1.00
H2       0.84459    0.65451    0.88436   1.00
H2       1.14863    0.64046    0.88419   1.00
H2       0.89955    0.62336    0.92652   1.00
H2       1.09098    0.61236    0.92489   1.00
H2       0.92725    0.61667    0.88383   1.00
H2       1.06494    0.65575    0.91626   1.00
H2       0.94745    0.64229    0.92377   1.00
H2       1.04385    0.61030    0.90404   1.00
H2       0.88042    0.72992    0.91539   1.00
H2       1.11383    0.58779    0.82135   1.00
H2       0.87025    0.68803    0.94347   1.00
H2       1.12149    0.57449    0.87046   1.00
H2       0.91739    0.70860    0.94429   1.00
H2       1.07502    0.56851    0.84924   1.00
C4       0.75331    0.51975    0.74654   1.00
C4       0.75305    0.47809    0.74501   1.00
C3       0.78075    0.54103    0.76942   1.00
C3       0.78262    0.45496    0.76289   1.00
C3       0.72524    0.54146    0.72458   1.00
C3       0.72230    0.45830    0.72491   1.00
C2       0.75510    0.60405    0.74815   1.00
C2       0.75153    0.39378    0.74358   1.00
C3       0.78180    0.58189    0.77010   1.00
C3       0.78184    0.41409    0.76241   1.00
C3       0.72744    0.58304    0.72589   1.00
C3       0.72246    0.41664    0.72528   1.00
H1       0.80076    0.52763    0.78675   1.00
H1       0.80604    0.46694    0.77661   1.00
C5       0.69587    0.52165    0.70229   1.00
C5       0.69261    0.48002    0.70496   1.00
H1       0.80241    0.59549    0.78707   1.00
H1       0.80395    0.39909    0.77599   1.00
H1       0.70815    0.59948    0.71046   1.00
H1       0.70095    0.40152    0.71154   1.00
C6       0.66903    0.54485    0.67596   1.00
C6       0.65805    0.45881    0.68739   1.00
H2       0.68613    0.56655    0.66022   1.00
H2       0.64775    0.43690    0.70800   1.00
H2       0.65773    0.52714    0.65220   1.00
H2       0.63270    0.47772    0.68495   1.00
C6       0.63395    0.56394    0.69827   1.00
C6       0.66702    0.44058    0.64641   1.00
H2       0.64442    0.57708    0.72539   1.00
H2       0.69547    0.42617    0.64713   1.00
C6       0.60940    0.59541    0.67605   1.00
C6       0.63674    0.41089    0.62942   1.00
H2       0.61432    0.54051    0.70733   1.00
H2       0.67027    0.46454    0.62563   1.00
C6       0.63370    0.63265    0.66755   1.00
C6       0.63494    0.37292    0.65401   1.00
C6       0.59279    0.57926    0.63723   1.00
C6       0.59537    0.42893    0.62679   1.00
C6       0.57445    0.60755    0.70222   1.00
C6       0.64969    0.39946    0.58753   1.00
H2       0.64637    0.64442    0.69432   1.00
H2       0.66383    0.35980    0.65696   1.00
H2       0.65745    0.62670    0.64730   1.00
H2       0.62370    0.37846    0.68321   1.00
H2       0.61564    0.65541    0.65451   1.00
H2       0.61581    0.35137    0.64046   1.00
H2       0.57348    0.60045    0.62336   1.00
H2       0.57511    0.40902    0.61236   1.00
H2       0.61617    0.57275    0.61667   1.00
H2       0.58374    0.43506    0.65575   1.00
H2       0.57623    0.55255    0.64229   1.00
H2       0.59596    0.45615    0.61030   1.00
H2       0.58461    0.61958    0.72992   1.00
H2       0.67865    0.38617    0.58779   1.00
H2       0.55653    0.62975    0.68803   1.00
H2       0.62954    0.37851    0.57449   1.00
H2       0.55571    0.58261    0.70860   1.00
H2       0.65076    0.42498    0.56851   1.00
C4       0.74654    0.75331    0.51975   1.00
C4       0.74501    0.75305    0.47809   1.00
C3       0.76942    0.78075    0.54103   1.00
C3       0.76289    0.78262    0.45496   1.00
C3       0.72458    0.72524    0.54146   1.00
C3       0.72491    0.72230    0.45830   1.00
C2       0.74815    0.75510    0.60405   1.00
C2       0.74358    0.75153    0.39378   1.00
C3       0.77010    0.78180    0.58189   1.00
C3       0.76241    0.78184    0.41409   1.00
C3       0.72589    0.72744    0.58304   1.00
C3       0.72528    0.72246    0.41664   1.00
H1       0.78675    0.80076    0.52763   1.00
H1       0.77661    0.80604    0.46694   1.00
C5       0.70229    0.69587    0.52165   1.00
C5       0.70496    0.69261    0.48002   1.00
H1       0.78707    0.80241    0.59549   1.00
H1       0.77599    0.80395    0.39909   1.00
H1       0.71046    0.70815    0.59948   1.00
H1       0.71154    0.70095    0.40152   1.00
C6       0.67596    0.66903    0.54485   1.00
C6       0.68739    0.65805    0.45881   1.00
H2       0.66022    0.68613    0.56655   1.00
H2       0.70800    0.64775    0.43690   1.00
H2       0.65220    0.65773    0.52714   1.00
H2       0.68495    0.63270    0.47772   1.00
C6       0.69827    0.63395    0.56394   1.00
C6       0.64641    0.66702    0.44058   1.00
H2       0.72539    0.64442    0.57708   1.00
H2       0.64713    0.69547    0.42617   1.00
C6       0.67605    0.60940    0.59541   1.00
C6       0.62942    0.63674    0.41089   1.00
H2       0.70733    0.61432    0.54051   1.00
H2       0.62563    0.67027    0.46454   1.00
C6       0.66755    0.63370    0.63265   1.00
C6       0.65401    0.63494    0.37292   1.00
C6       0.63723    0.59279    0.57926   1.00
C6       0.62679    0.59537    0.42893   1.00
C6       0.70222    0.57445    0.60755   1.00
C6       0.58753    0.64969    0.39946   1.00
H2       0.69432    0.64637    0.64442   1.00
H2       0.65696    0.66383    0.35980   1.00
H2       0.64730    0.65745    0.62670   1.00
H2       0.68321    0.62370    0.37846   1.00
H2       0.65451    0.61564    0.65541   1.00
H2       0.64046    0.61581    0.35137   1.00
H2       0.62336    0.57348    0.60045   1.00
H2       0.61236    0.57511    0.40902   1.00
H2       0.61667    0.61617    0.57275   1.00
H2       0.65575    0.58374    0.43506   1.00
H2       0.64229    0.57623    0.55255   1.00
H2       0.61030    0.59596    0.45615   1.00
H2       0.72992    0.58461    0.61958   1.00
H2       0.58779    0.67865    0.38617   1.00
H2       0.68803    0.55653    0.62975   1.00
H2       0.57449    0.62954    0.37851   1.00
H2       0.70860    0.55571    0.58261   1.00
H2       0.56851    0.65076    0.42498   1.00
C4       0.24654    0.24669    0.98025   1.00
C4       0.24501    0.24695    1.02191   1.00
C3       0.26942    0.21925    0.95897   1.00
C3       0.26289    0.21738    1.04504   1.00
C3       0.22458    0.27476    0.95854   1.00
C3       0.22491    0.27770    1.04170   1.00
C2       0.24815    0.24490    0.89595   1.00
C2       0.24358    0.24847    1.10622   1.00
C3       0.27010    0.21820    0.91811   1.00
C3       0.26241    0.21816    1.08591   1.00
C3       0.22589    0.27256    0.91696   1.00
C3       0.22528    0.27754    1.08336   1.00
H1       0.28675    0.19924    0.97237   1.00
H1       0.27661    0.19396    1.03306   1.00
C5       0.20229    0.30413    0.97835   1.00
C5       0.20496    0.30739    1.01998   1.00
H1       0.28707    0.19759    0.90451   1.00
H1       0.27599    0.19605    1.10091   1.00
H1       0.21046    0.29185    0.90052   1.00
H1       0.21154    0.29905    1.09848   1.00
C6       0.17596    0.33097    0.95515   1.00
C6       0.18739    0.34195    1.04119   1.00
H2       0.16022    0.31387    0.93345   1.00
H2       0.20800    0.35225    1.06310   1.00
H2       0.15220    0.34227    0.97286   1.00
H2       0.18495    0.36730    1.02228   1.00
C6       0.19827    0.36605    0.93606   1.00
C6       0.14641    0.33298    1.05942   1.00
H2       0.22539    0.35558    0.92292   1.00
H2       0.14713    0.30453    1.07383   1.00
C6       0.17605    0.39060    0.90459   1.00
C6       0.12942    0.36326    1.08911   1.00
H2       0.20733    0.38568    0.95949   1.00
H2       0.12563    0.32973    1.03546   1.00
C6       0.16755    0.36630    0.86735   1.00
C6       0.15401    0.36506    1.12708   1.00
C6       0.13723    0.40721    0.92074   1.00
C6       0.12679    0.40463    1.07107   1.00
C6       0.20222    0.42555    0.89245   1.00
C6       0.08753    0.35031    1.10054   1.00
H2       0.19432    0.35363    0.85558   1.00
H2       0.15696    0.33617    1.14020   1.00
H2       0.14730    0.34255    0.87330   1.00
H2       0.18321    0.37630    1.12154   1.00
H2       0.15451    0.38436    0.84459   1.00
H2       0.14046    0.38419    1.14863   1.00
H2       0.12336    0.42652    0.89955   1.00
H2       0.11236    0.42489    1.09098   1.00
H2       0.11667    0.38383    0.92725   1.00
H2       0.15575    0.41626    1.06494   1.00
H2       0.14229    0.42377    0.94745   1.00
H2       0.11030    0.40404    1.04385   1.00
H2       0.22992    0.41539    0.88042   1.00
H2       0.08779    0.32135    1.11383   1.00
H2       0.18803    0.44347    0.87025   1.00
H2       0.07449    0.37046    1.12149   1.00
H2       0.20860    0.44429    0.91739   1.00
H2       0.06851    0.34924    1.07502   1.00
C4       0.24669    0.48025    0.74654   1.00
C4       0.24695    0.52191    0.74501   1.00
C3       0.21925    0.45897    0.76942   1.00
C3       0.21738    0.54504    0.76289   1.00
C3       0.27476    0.45854    0.72458   1.00
C3       0.27770    0.54170    0.72491   1.00
C2       0.24490    0.39595    0.74815   1.00
C2       0.24847    0.60622    0.74358   1.00
C3       0.21820    0.41811    0.77010   1.00
C3       0.21816    0.58591    0.76241   1.00
C3       0.27256    0.41696    0.72589   1.00
C3       0.27754    0.58336    0.72528   1.00
H1       0.19924    0.47237    0.78675   1.00
H1       0.19396    0.53306    0.77661   1.00
C5       0.30413    0.47835    0.70229   1.00
C5       0.30739    0.51998    0.70496   1.00
H1       0.19759    0.40451    0.78707   1.00
H1       0.19605    0.60091    0.77599   1.00
H1       0.29185    0.40052    0.71046   1.00
H1       0.29905    0.59848    0.71154   1.00
C6       0.33097    0.45515    0.67596   1.00
C6       0.34195    0.54119    0.68739   1.00
H2       0.31387    0.43345    0.66022   1.00
H2       0.35225    0.56310    0.70800   1.00
H2       0.34227    0.47286    0.65220   1.00
H2       0.36730    0.52228    0.68495   1.00
C6       0.36605    0.43606    0.69827   1.00
C6       0.33298    0.55942    0.64641   1.00
H2       0.35558    0.42292    0.72539   1.00
H2       0.30453    0.57383    0.64713   1.00
C6       0.39060    0.40459    0.67605   1.00
C6       0.36326    0.58911    0.62942   1.00
H2       0.38568    0.45949    0.70733   1.00
H2       0.32973    0.53546    0.62563   1.00
C6       0.36630    0.36735    0.66755   1.00
C6       0.36506    0.62708    0.65401   1.00
C6       0.40721    0.42074    0.63723   1.00
C6       0.40463    0.57107    0.62679   1.00
C6       0.42555    0.39245    0.70222   1.00
C6       0.35031    0.60054    0.58753   1.00
H2       0.35363    0.35558    0.69432   1.00
H2       0.33617    0.64020    0.65696   1.00
H2       0.34255    0.37330    0.64730   1.00
H2       0.37630    0.62154    0.68321   1.00
H2       0.38436    0.34459    0.65451   1.00
H2       0.38419    0.64863    0.64046   1.00
H2       0.42652    0.39955    0.62336   1.00
H2       0.42489    0.59098    0.61236   1.00
H2       0.38383    0.42725    0.61667   1.00
H2       0.41626    0.56494    0.65575   1.00
H2       0.42377    0.44745    0.64229   1.00
H2       0.40404    0.54385    0.61030   1.00
H2       0.41539    0.38042    0.72992   1.00
H2       0.32135    0.61383    0.58779   1.00
H2       0.44347    0.37025    0.68803   1.00
H2       0.37046    0.62149    0.57449   1.00
H2       0.44429    0.41739    0.70860   1.00
H2       0.34924    0.57502    0.56851   1.00
C4       0.01975    0.24654    0.75331   1.00
C4       -0.02191   0.24501    0.75305   1.00
C3       0.04103    0.26942    0.78075   1.00
C3       -0.04504   0.26289    0.78262   1.00
C3       0.04146    0.22458    0.72524   1.00
C3       -0.04170   0.22491    0.72230   1.00
C2       0.10405    0.24815    0.75510   1.00
C2       -0.10622   0.24358    0.75153   1.00
C3       0.08189    0.27010    0.78180   1.00
C3       -0.08591   0.26241    0.78184   1.00
C3       0.08304    0.22589    0.72744   1.00
C3       -0.08336   0.22528    0.72246   1.00
H1       0.02763    0.28675    0.80076   1.00
H1       -0.03306   0.27661    0.80604   1.00
C5       0.02165    0.20229    0.69587   1.00
C5       -0.01998   0.20496    0.69261   1.00
H1       0.09549    0.28707    0.80241   1.00
H1       -0.10091   0.27599    0.80395   1.00
H1       0.09948    0.21046    0.70815   1.00
H1       -0.09848   0.21154    0.70095   1.00
C6       0.04485    0.17596    0.66903   1.00
C6       -0.04119   0.18739    0.65805   1.00
H2       0.06655    0.16022    0.68613   1.00
H2       -0.06310   0.20800    0.64775   1.00
H2       0.02714    0.15220    0.65773   1.00
H2       -0.02228   0.18495    0.63270   1.00
C6       0.06394    0.19827    0.63395   1.00
C6       -0.05942   0.14641    0.66702   1.00
H2       0.07708    0.22539    0.64442   1.00
H2       -0.07383   0.14713    0.69547   1.00
C6       0.09541    0.17605    0.60940   1.00
C6       -0.08911   0.12942    0.63674   1.00
H2       0.04051    0.20733    0.61432   1.00
H2       -0.03546   0.12563    0.67027   1.00
C6       0.13265    0.16755    0.63370   1.00
C6       -0.12708   0.15401    0.63494   1.00
C6       0.07926    0.13723    0.59279   1.00
C6       -0.07107   0.12679    0.59537   1.00
C6       0.10755    0.20222    0.57445   1.00
C6       -0.10054   0.08753    0.64969   1.00
H2       0.14442    0.19432    0.64637   1.00
H2       -0.14020   0.15696    0.66383   1.00
H2       0.12670    0.14730    0.65745   1.00
H2       -0.12154   0.18321    0.62370   1.00
H2       0.15541    0.15451    0.61564   1.00
H2       -0.14863   0.14046    0.61581   1.00
H2       0.10045    0.12336    0.57348   1.00
H2       -0.09098   0.11236    0.57511   1.00
H2       0.07275    0.11667    0.61617   1.00
H2       -0.06494   0.15575    0.58374   1.00
H2       0.05255    0.14229    0.57623   1.00
H2       -0.04385   0.11030    0.59596   1.00
H2       0.11958    0.22992    0.58461   1.00
H2       -0.11383   0.08779    0.67865   1.00
H2       0.12975    0.18803    0.55653   1.00
H2       -0.12149   0.07449    0.62954   1.00
H2       0.08261    0.20860    0.55571   1.00
H2       -0.07502   0.06851    0.65076   1.00
C4       0.48025    0.24654    0.74669   1.00
C4       0.52191    0.24501    0.74695   1.00
C3       0.45897    0.26942    0.71925   1.00
C3       0.54504    0.26289    0.71738   1.00
C3       0.45854    0.22458    0.77476   1.00
C3       0.54170    0.22491    0.77770   1.00
C2       0.39595    0.24815    0.74490   1.00
C2       0.60622    0.24358    0.74847   1.00
C3       0.41811    0.27010    0.71820   1.00
C3       0.58591    0.26241    0.71816   1.00
C3       0.41696    0.22589    0.77256   1.00
C3       0.58336    0.22528    0.77754   1.00
H1       0.47237    0.28675    0.69924   1.00
H1       0.53306    0.27661    0.69396   1.00
C5       0.47835    0.20229    0.80413   1.00
C5       0.51998    0.20496    0.80739   1.00
H1       0.40451    0.28707    0.69759   1.00
H1       0.60091    0.27599    0.69605   1.00
H1       0.40052    0.21046    0.79185   1.00
H1       0.59848    0.21154    0.79905   1.00
C6       0.45515    0.17596    0.83097   1.00
C6       0.54119    0.18739    0.84195   1.00
H2       0.43345    0.16022    0.81387   1.00
H2       0.56310    0.20800    0.85225   1.00
H2       0.47286    0.15220    0.84227   1.00
H2       0.52228    0.18495    0.86730   1.00
C6       0.43606    0.19827    0.86605   1.00
C6       0.55942    0.14641    0.83298   1.00
H2       0.42292    0.22539    0.85558   1.00
H2       0.57383    0.14713    0.80453   1.00
C6       0.40459    0.17605    0.89060   1.00
C6       0.58911    0.12942    0.86326   1.00
H2       0.45949    0.20733    0.88568   1.00
H2       0.53546    0.12563    0.82973   1.00
C6       0.36735    0.16755    0.86630   1.00
C6       0.62708    0.15401    0.86506   1.00
C6       0.42074    0.13723    0.90721   1.00
C6       0.57107    0.12679    0.90463   1.00
C6       0.39245    0.20222    0.92555   1.00
C6       0.60054    0.08753    0.85031   1.00
H2       0.35558    0.19432    0.85363   1.00
H2       0.64020    0.15696    0.83617   1.00
H2       0.37330    0.14730    0.84255   1.00
H2       0.62154    0.18321    0.87630   1.00
H2       0.34459    0.15451    0.88436   1.00
H2       0.64863    0.14046    0.88419   1.00
H2       0.39955    0.12336    0.92652   1.00
H2       0.59098    0.11236    0.92489   1.00
H2       0.42725    0.11667    0.88383   1.00
H2       0.56494    0.15575    0.91626   1.00
H2       0.44745    0.14229    0.92377   1.00
H2       0.54385    0.11030    0.90404   1.00
H2       0.38042    0.22992    0.91539   1.00
H2       0.61383    0.08779    0.82135   1.00
H2       0.37025    0.18803    0.94347   1.00
H2       0.62149    0.07449    0.87046   1.00
H2       0.41739    0.20860    0.94429   1.00
H2       0.57502    0.06851    0.84924   1.00
C4       0.25331    0.01975    0.74654   1.00
C4       0.25305    -0.02191   0.74501   1.00
C3       0.28075    0.04103    0.76942   1.00
C3       0.28262    -0.04504   0.76289   1.00
C3       0.22524    0.04146    0.72458   1.00
C3       0.22230    -0.04170   0.72491   1.00
C2       0.25510    0.10405    0.74815   1.00
C2       0.25153    -0.10622   0.74358   1.00
C3       0.28180    0.08189    0.77010   1.00
C3       0.28184    -0.08591   0.76241   1.00
C3       0.22744    0.08304    0.72589   1.00
C3       0.22246    -0.08336   0.72528   1.00
H1       0.30076    0.02763    0.78675   1.00
H1       0.30604    -0.03306   0.77661   1.00
C5       0.19587    0.02165    0.70229   1.00
C5       0.19261    -0.01998   0.70496   1.00
H1       0.30241    0.09549    0.78707   1.00
H1       0.30395    -0.10091   0.77599   1.00
H1       0.20815    0.09948    0.71046   1.00
H1       0.20095    -0.09848   0.71154   1.00
C6       0.16903    0.04485    0.67596   1.00
C6       0.15805    -0.04119   0.68739   1.00
H2       0.18613    0.06655    0.66022   1.00
H2       0.14775    -0.06310   0.70800   1.00
H2       0.15773    0.02714    0.65220   1.00
H2       0.13270    -0.02228   0.68495   1.00
C6       0.13395    0.06394    0.69827   1.00
C6       0.16702    -0.05942   0.64641   1.00
H2       0.14442    0.07708    0.72539   1.00
H2       0.19547    -0.07383   0.64713   1.00
C6       0.10940    0.09541    0.67605   1.00
C6       0.13674    -0.08911   0.62942   1.00
H2       0.11432    0.04051    0.70733   1.00
H2       0.17027    -0.03546   0.62563   1.00
C6       0.13370    0.13265    0.66755   1.00
C6       0.13494    -0.12708   0.65401   1.00
C6       0.09279    0.07926    0.63723   1.00
C6       0.09537    -0.07107   0.62679   1.00
C6       0.07445    0.10755    0.70222   1.00
C6       0.14969    -0.10054   0.58753   1.00
H2       0.14637    0.14442    0.69432   1.00
H2       0.16383    -0.14020   0.65696   1.00
H2       0.15745    0.12670    0.64730   1.00
H2       0.12370    -0.12154   0.68321   1.00
H2       0.11564    0.15541    0.65451   1.00
H2       0.11581    -0.14863   0.64046   1.00
H2       0.07348    0.10045    0.62336   1.00
H2       0.07511    -0.09098   0.61236   1.00
H2       0.11617    0.07275    0.61667   1.00
H2       0.08374    -0.06494   0.65575   1.00
H2       0.07623    0.05255    0.64229   1.00
H2       0.09596    -0.04385   0.61030   1.00
H2       0.08461    0.11958    0.72992   1.00
H2       0.17865    -0.11383   0.58779   1.00
H2       0.05653    0.12975    0.68803   1.00
H2       0.12954    -0.12149   0.57449   1.00
H2       0.05571    0.08261    0.70860   1.00
H2       0.15076    -0.07502   0.56851   1.00
C4       0.24654    0.25331    0.51975   1.00
C4       0.24501    0.25305    0.47809   1.00
C3       0.26942    0.28075    0.54103   1.00
C3       0.26289    0.28262    0.45496   1.00
C3       0.22458    0.22524    0.54146   1.00
C3       0.22491    0.22230    0.45830   1.00
C2       0.24815    0.25510    0.60405   1.00
C2       0.24358    0.25153    0.39378   1.00
C3       0.27010    0.28180    0.58189   1.00
C3       0.26241    0.28184    0.41409   1.00
C3       0.22589    0.22744    0.58304   1.00
C3       0.22528    0.22246    0.41664   1.00
H1       0.28675    0.30076    0.52763   1.00
H1       0.27661    0.30604    0.46694   1.00
C5       0.20229    0.19587    0.52165   1.00
C5       0.20496    0.19261    0.48002   1.00
H1       0.28707    0.30241    0.59549   1.00
H1       0.27599    0.30395    0.39909   1.00
H1       0.21046    0.20815    0.59948   1.00
H1       0.21154    0.20095    0.40152   1.00
C6       0.17596    0.16903    0.54485   1.00
C6       0.18739    0.15805    0.45881   1.00
H2       0.16022    0.18613    0.56655   1.00
H2       0.20800    0.14775    0.43690   1.00
H2       0.15220    0.15773    0.52714   1.00
H2       0.18495    0.13270    0.47772   1.00
C6       0.19827    0.13395    0.56394   1.00
C6       0.14641    0.16702    0.44058   1.00
H2       0.22539    0.14442    0.57708   1.00
H2       0.14713    0.19547    0.42617   1.00
C6       0.17605    0.10940    0.59541   1.00
C6       0.12942    0.13674    0.41089   1.00
H2       0.20733    0.11432    0.54051   1.00
H2       0.12563    0.17027    0.46454   1.00
C6       0.16755    0.13370    0.63265   1.00
C6       0.15401    0.13494    0.37292   1.00
C6       0.13723    0.09279    0.57926   1.00
C6       0.12679    0.09537    0.42893   1.00
C6       0.20222    0.07445    0.60755   1.00
C6       0.08753    0.14969    0.39946   1.00
H2       0.19432    0.14637    0.64442   1.00
H2       0.15696    0.16383    0.35980   1.00
H2       0.14730    0.15745    0.62670   1.00
H2       0.18321    0.12370    0.37846   1.00
H2       0.15451    0.11564    0.65541   1.00
H2       0.14046    0.11581    0.35137   1.00
H2       0.12336    0.07348    0.60045   1.00
H2       0.11236    0.07511    0.40902   1.00
H2       0.11667    0.11617    0.57275   1.00
H2       0.15575    0.08374    0.43506   1.00
H2       0.14229    0.07623    0.55255   1.00
H2       0.11030    0.09596    0.45615   1.00
H2       0.22992    0.08461    0.61958   1.00
H2       0.08779    0.17865    0.38617   1.00
H2       0.18803    0.05653    0.62975   1.00
H2       0.07449    0.12954    0.37851   1.00
H2       0.20860    0.05571    0.58261   1.00
H2       0.06851    0.15076    0.42498   1.00
C4       0.24654    0.74669    0.48025   1.00
C4       0.24501    0.74695    0.52191   1.00
C3       0.26942    0.71925    0.45897   1.00
C3       0.26289    0.71738    0.54504   1.00
C3       0.22458    0.77476    0.45854   1.00
C3       0.22491    0.77770    0.54170   1.00
C2       0.24815    0.74490    0.39595   1.00
C2       0.24358    0.74847    0.60622   1.00
C3       0.27010    0.71820    0.41811   1.00
C3       0.26241    0.71816    0.58591   1.00
C3       0.22589    0.77256    0.41696   1.00
C3       0.22528    0.77754    0.58336   1.00
H1       0.28675    0.69924    0.47237   1.00
H1       0.27661    0.69396    0.53306   1.00
C5       0.20229    0.80413    0.47835   1.00
C5       0.20496    0.80739    0.51998   1.00
H1       0.28707    0.69759    0.40451   1.00
H1       0.27599    0.69605    0.60091   1.00
H1       0.21046    0.79185    0.40052   1.00
H1       0.21154    0.79905    0.59848   1.00
C6       0.17596    0.83097    0.45515   1.00
C6       0.18739    0.84195    0.54119   1.00
H2       0.16022    0.81387    0.43345   1.00
H2       0.20800    0.85225    0.56310   1.00
H2       0.15220    0.84227    0.47286   1.00
H2       0.18495    0.86730    0.52228   1.00
C6       0.19827    0.86605    0.43606   1.00
C6       0.14641    0.83298    0.55942   1.00
H2       0.22539    0.85558    0.42292   1.00
H2       0.14713    0.80453    0.57383   1.00
C6       0.17605    0.89060    0.40459   1.00
C6       0.12942    0.86326    0.58911   1.00
H2       0.20733    0.88568    0.45949   1.00
H2       0.12563    0.82973    0.53546   1.00
C6       0.16755    0.86630    0.36735   1.00
C6       0.15401    0.86506    0.62708   1.00
C6       0.13723    0.90721    0.42074   1.00
C6       0.12679    0.90463    0.57107   1.00
C6       0.20222    0.92555    0.39245   1.00
C6       0.08753    0.85031    0.60054   1.00
H2       0.19432    0.85363    0.35558   1.00
H2       0.15696    0.83617    0.64020   1.00
H2       0.14730    0.84255    0.37330   1.00
H2       0.18321    0.87630    0.62154   1.00
H2       0.15451    0.88436    0.34459   1.00
H2       0.14046    0.88419    0.64863   1.00
H2       0.12336    0.92652    0.39955   1.00
H2       0.11236    0.92489    0.59098   1.00
H2       0.11667    0.88383    0.42725   1.00
H2       0.15575    0.91626    0.56494   1.00
H2       0.14229    0.92377    0.44745   1.00
H2       0.11030    0.90404    0.54385   1.00
H2       0.22992    0.91539    0.38042   1.00
H2       0.08779    0.82135    0.61383   1.00
H2       0.18803    0.94347    0.37025   1.00
H2       0.07449    0.87046    0.62149   1.00
H2       0.20860    0.94429    0.41739   1.00
H2       0.06851    0.84924    0.57502   1.00
C4       0.24669    0.98025    0.24654   1.00
C4       0.24695    1.02191    0.24501   1.00
C3       0.21925    0.95897    0.26942   1.00
C3       0.21738    1.04504    0.26289   1.00
C3       0.27476    0.95854    0.22458   1.00
C3       0.27770    1.04170    0.22491   1.00
C2       0.24490    0.89595    0.24815   1.00
C2       0.24847    1.10622    0.24358   1.00
C3       0.21820    0.91811    0.27010   1.00
C3       0.21816    1.08591    0.26241   1.00
C3       0.27256    0.91696    0.22589   1.00
C3       0.27754    1.08336    0.22528   1.00
H1       0.19924    0.97237    0.28675   1.00
H1       0.19396    1.03306    0.27661   1.00
C5       0.30413    0.97835    0.20229   1.00
C5       0.30739    1.01998    0.20496   1.00
H1       0.19759    0.90451    0.28707   1.00
H1       0.19605    1.10091    0.27599   1.00
H1       0.29185    0.90052    0.21046   1.00
H1       0.29905    1.09848    0.21154   1.00
C6       0.33097    0.95515    0.17596   1.00
C6       0.34195    1.04119    0.18739   1.00
H2       0.31387    0.93345    0.16022   1.00
H2       0.35225    1.06310    0.20800   1.00
H2       0.34227    0.97286    0.15220   1.00
H2       0.36730    1.02228    0.18495   1.00
C6       0.36605    0.93606    0.19827   1.00
C6       0.33298    1.05942    0.14641   1.00
H2       0.35558    0.92292    0.22539   1.00
H2       0.30453    1.07383    0.14713   1.00
C6       0.39060    0.90459    0.17605   1.00
C6       0.36326    1.08911    0.12942   1.00
H2       0.38568    0.95949    0.20733   1.00
H2       0.32973    1.03546    0.12563   1.00
C6       0.36630    0.86735    0.16755   1.00
C6       0.36506    1.12708    0.15401   1.00
C6       0.40721    0.92074    0.13723   1.00
C6       0.40463    1.07107    0.12679   1.00
C6       0.42555    0.89245    0.20222   1.00
C6       0.35031    1.10054    0.08753   1.00
H2       0.35363    0.85558    0.19432   1.00
H2       0.33617    1.14020    0.15696   1.00
H2       0.34255    0.87330    0.14730   1.00
H2       0.37630    1.12154    0.18321   1.00
H2       0.38436    0.84459    0.15451   1.00
H2       0.38419    1.14863    0.14046   1.00
H2       0.42652    0.89955    0.12336   1.00
H2       0.42489    1.09098    0.11236   1.00
H2       0.38383    0.92725    0.11667   1.00
H2       0.41626    1.06494    0.15575   1.00
H2       0.42377    0.94745    0.14229   1.00
H2       0.40404    1.04385    0.11030   1.00
H2       0.41539    0.88042    0.22992   1.00
H2       0.32135    1.11383    0.08779   1.00
H2       0.44347    0.87025    0.18803   1.00
H2       0.37046    1.12149    0.07449   1.00
H2       0.44429    0.91739    0.20860   1.00
H2       0.34924    1.07502    0.06851   1.00
C4       0.01975    0.74654    0.25331   1.00
C4       -0.02191   0.74501    0.25305   1.00
C3       0.04103    0.76942    0.28075   1.00
C3       -0.04504   0.76289    0.28262   1.00
C3       0.04146    0.72458    0.22524   1.00
C3       -0.04170   0.72491    0.22230   1.00
C2       0.10405    0.74815    0.25510   1.00
C2       -0.10622   0.74358    0.25153   1.00
C3       0.08189    0.77010    0.28180   1.00
C3       -0.08591   0.76241    0.28184   1.00
C3       0.08304    0.72589    0.22744   1.00
C3       -0.08336   0.72528    0.22246   1.00
H1       0.02763    0.78675    0.30076   1.00
H1       -0.03306   0.77661    0.30604   1.00
C5       0.02165    0.70229    0.19587   1.00
C5       -0.01998   0.70496    0.19261   1.00
H1       0.09549    0.78707    0.30241   1.00
H1       -0.10091   0.77599    0.30395   1.00
H1       0.09948    0.71046    0.20815   1.00
H1       -0.09848   0.71154    0.20095   1.00
C6       0.04485    0.67596    0.16903   1.00
C6       -0.04119   0.68739    0.15805   1.00
H2       0.06655    0.66022    0.18613   1.00
H2       -0.06310   0.70800    0.14775   1.00
H2       0.02714    0.65220    0.15773   1.00
H2       -0.02228   0.68495    0.13270   1.00
C6       0.06394    0.69827    0.13395   1.00
C6       -0.05942   0.64641    0.16702   1.00
H2       0.07708    0.72539    0.14442   1.00
H2       -0.07383   0.64713    0.19547   1.00
C6       0.09541    0.67605    0.10940   1.00
C6       -0.08911   0.62942    0.13674   1.00
H2       0.04051    0.70733    0.11432   1.00
H2       -0.03546   0.62563    0.17027   1.00
C6       0.13265    0.66755    0.13370   1.00
C6       -0.12708   0.65401    0.13494   1.00
C6       0.07926    0.63723    0.09279   1.00
C6       -0.07107   0.62679    0.09537   1.00
C6       0.10755    0.70222    0.07445   1.00
C6       -0.10054   0.58753    0.14969   1.00
H2       0.14442    0.69432    0.14637   1.00
H2       -0.14020   0.65696    0.16383   1.00
H2       0.12670    0.64730    0.15745   1.00
H2       -0.12154   0.68321    0.12370   1.00
H2       0.15541    0.65451    0.11564   1.00
H2       -0.14863   0.64046    0.11581   1.00
H2       0.10045    0.62336    0.07348   1.00
H2       -0.09098   0.61236    0.07511   1.00
H2       0.07275    0.61667    0.11617   1.00
H2       -0.06494   0.65575    0.08374   1.00
H2       0.05255    0.64229    0.07623   1.00
H2       -0.04385   0.61030    0.09596   1.00
H2       0.11958    0.72992    0.08461   1.00
H2       -0.11383   0.58779    0.17865   1.00
H2       0.12975    0.68803    0.05653   1.00
H2       -0.12149   0.57449    0.12954   1.00
H2       0.08261    0.70860    0.05571   1.00
H2       -0.07502   0.56851    0.15076   1.00
C4       0.48025    0.74654    0.24669   1.00
C4       0.52191    0.74501    0.24695   1.00
C3       0.45897    0.76942    0.21925   1.00
C3       0.54504    0.76289    0.21738   1.00
C3       0.45854    0.72458    0.27476   1.00
C3       0.54170    0.72491    0.27770   1.00
C2       0.39595    0.74815    0.24490   1.00
C2       0.60622    0.74358    0.24847   1.00
C3       0.41811    0.77010    0.21820   1.00
C3       0.58591    0.76241    0.21816   1.00
C3       0.41696    0.72589    0.27256   1.00
C3       0.58336    0.72528    0.27754   1.00
H1       0.47237    0.78675    0.19924   1.00
H1       0.53306    0.77661    0.19396   1.00
C5       0.47835    0.70229    0.30413   1.00
C5       0.51998    0.70496    0.30739   1.00
H1       0.40451    0.78707    0.19759   1.00
H1       0.60091    0.77599    0.19605   1.00
H1       0.40052    0.71046    0.29185   1.00
H1       0.59848    0.71154    0.29905   1.00
C6       0.45515    0.67596    0.33097   1.00
C6       0.54119    0.68739    0.34195   1.00
H2       0.43345    0.66022    0.31387   1.00
H2       0.56310    0.70800    0.35225   1.00
H2       0.47286    0.65220    0.34227   1.00
H2       0.52228    0.68495    0.36730   1.00
C6       0.43606    0.69827    0.36605   1.00
C6       0.55942    0.64641    0.33298   1.00
H2       0.42292    0.72539    0.35558   1.00
H2       0.57383    0.64713    0.30453   1.00
C6       0.40459    0.67605    0.39060   1.00
C6       0.58911    0.62942    0.36326   1.00
H2       0.45949    0.70733    0.38568   1.00
H2       0.53546    0.62563    0.32973   1.00
C6       0.36735    0.66755    0.36630   1.00
C6       0.62708    0.65401    0.36506   1.00
C6       0.42074    0.63723    0.40721   1.00
C6       0.57107    0.62679    0.40463   1.00
C6       0.39245    0.70222    0.42555   1.00
C6       0.60054    0.58753    0.35031   1.00
H2       0.35558    0.69432    0.35363   1.00
H2       0.64020    0.65696    0.33617   1.00
H2       0.37330    0.64730    0.34255   1.00
H2       0.62154    0.68321    0.37630   1.00
H2       0.34459    0.65451    0.38436   1.00
H2       0.64863    0.64046    0.38419   1.00
H2       0.39955    0.62336    0.42652   1.00
H2       0.59098    0.61236    0.42489   1.00
H2       0.42725    0.61667    0.38383   1.00
H2       0.56494    0.65575    0.41626   1.00
H2       0.44745    0.64229    0.42377   1.00
H2       0.54385    0.61030    0.40404   1.00
H2       0.38042    0.72992    0.41539   1.00
H2       0.61383    0.58779    0.32135   1.00
H2       0.37025    0.68803    0.44347   1.00
H2       0.62149    0.57449    0.37046   1.00
H2       0.41739    0.70860    0.44429   1.00
H2       0.57502    0.56851    0.34924   1.00
C4       0.25331    0.51975    0.24654   1.00
C4       0.25305    0.47809    0.24501   1.00
C3       0.28075    0.54103    0.26942   1.00
C3       0.28262    0.45496    0.26289   1.00
C3       0.22524    0.54146    0.22458   1.00
C3       0.22230    0.45830    0.22491   1.00
C2       0.25510    0.60405    0.24815   1.00
C2       0.25153    0.39378    0.24358   1.00
C3       0.28180    0.58189    0.27010   1.00
C3       0.28184    0.41409    0.26241   1.00
C3       0.22744    0.58304    0.22589   1.00
C3       0.22246    0.41664    0.22528   1.00
H1       0.30076    0.52763    0.28675   1.00
H1       0.30604    0.46694    0.27661   1.00
C5       0.19587    0.52165    0.20229   1.00
C5       0.19261    0.48002    0.20496   1.00
H1       0.30241    0.59549    0.28707   1.00
H1       0.30395    0.39909    0.27599   1.00
H1       0.20815    0.59948    0.21046   1.00
H1       0.20095    0.40152    0.21154   1.00
C6       0.16903    0.54485    0.17596   1.00
C6       0.15805    0.45881    0.18739   1.00
H2       0.18613    0.56655    0.16022   1.00
H2       0.14775    0.43690    0.20800   1.00
H2       0.15773    0.52714    0.15220   1.00
H2       0.13270    0.47772    0.18495   1.00
C6       0.13395    0.56394    0.19827   1.00
C6       0.16702    0.44058    0.14641   1.00
H2       0.14442    0.57708    0.22539   1.00
H2       0.19547    0.42617    0.14713   1.00
C6       0.10940    0.59541    0.17605   1.00
C6       0.13674    0.41089    0.12942   1.00
H2       0.11432    0.54051    0.20733   1.00
H2       0.17027    0.46454    0.12563   1.00
C6       0.13370    0.63265    0.16755   1.00
C6       0.13494    0.37292    0.15401   1.00
C6       0.09279    0.57926    0.13723   1.00
C6       0.09537    0.42893    0.12679   1.00
C6       0.07445    0.60755    0.20222   1.00
C6       0.14969    0.39946    0.08753   1.00
H2       0.14637    0.64442    0.19432   1.00
H2       0.16383    0.35980    0.15696   1.00
H2       0.15745    0.62670    0.14730   1.00
H2       0.12370    0.37846    0.18321   1.00
H2       0.11564    0.65541    0.15451   1.00
H2       0.11581    0.35137    0.14046   1.00
H2       0.07348    0.60045    0.12336   1.00
H2       0.07511    0.40902    0.11236   1.00
H2       0.11617    0.57275    0.11667   1.00
H2       0.08374    0.43506    0.15575   1.00
H2       0.07623    0.55255    0.14229   1.00
H2       0.09596    0.45615    0.11030   1.00
H2       0.08461    0.61958    0.22992   1.00
H2       0.17865    0.38617    0.08779   1.00
H2       0.05653    0.62975    0.18803   1.00
H2       0.12954    0.37851    0.07449   1.00
H2       0.05571    0.58261    0.20860   1.00
H2       0.15076    0.42498    0.06851   1.00
C4       0.24654    0.75331    0.01975   1.00
C4       0.24501    0.75305    -0.02191   1.00
C3       0.26942    0.78075    0.04103   1.00
C3       0.26289    0.78262    -0.04504   1.00
C3       0.22458    0.72524    0.04146   1.00
C3       0.22491    0.72230    -0.04170   1.00
C2       0.24815    0.75510    0.10405   1.00
C2       0.24358    0.75153    -0.10622   1.00
C3       0.27010    0.78180    0.08189   1.00
C3       0.26241    0.78184    -0.08591   1.00
C3       0.22589    0.72744    0.08304   1.00
C3       0.22528    0.72246    -0.08336   1.00
H1       0.28675    0.80076    0.02763   1.00
H1       0.27661    0.80604    -0.03306   1.00
C5       0.20229    0.69587    0.02165   1.00
C5       0.20496    0.69261    -0.01998   1.00
H1       0.28707    0.80241    0.09549   1.00
H1       0.27599    0.80395    -0.10091   1.00
H1       0.21046    0.70815    0.09948   1.00
H1       0.21154    0.70095    -0.09848   1.00
C6       0.17596    0.66903    0.04485   1.00
C6       0.18739    0.65805    -0.04119   1.00
H2       0.16022    0.68613    0.06655   1.00
H2       0.20800    0.64775    -0.06310   1.00
H2       0.15220    0.65773    0.02714   1.00
H2       0.18495    0.63270    -0.02228   1.00
C6       0.19827    0.63395    0.06394   1.00
C6       0.14641    0.66702    -0.05942   1.00
H2       0.22539    0.64442    0.07708   1.00
H2       0.14713    0.69547    -0.07383   1.00
C6       0.17605    0.60940    0.09541   1.00
C6       0.12942    0.63674    -0.08911   1.00
H2       0.20733    0.61432    0.04051   1.00
H2       0.12563    0.67027    -0.03546   1.00
C6       0.16755    0.63370    0.13265   1.00
C6       0.15401    0.63494    -0.12708   1.00
C6       0.13723    0.59279    0.07926   1.00
C6       0.12679    0.59537    -0.07107   1.00
C6       0.20222    0.57445    0.10755   1.00
C6       0.08753    0.64969    -0.10054   1.00
H2       0.19432    0.64637    0.14442   1.00
H2       0.15696    0.66383    -0.14020   1.00
H2       0.14730    0.65745    0.12670   1.00
H2       0.18321    0.62370    -0.12154   1.00
H2       0.15451    0.61564    0.15541   1.00
H2       0.14046    0.61581    -0.14863   1.00
H2       0.12336    0.57348    0.10045   1.00
H2       0.11236    0.57511    -0.09098   1.00
H2       0.11667    0.61617    0.07275   1.00
H2       0.15575    0.58374    -0.06494   1.00
H2       0.14229    0.57623    0.05255   1.00
H2       0.11030    0.59596    -0.04385   1.00
H2       0.22992    0.58461    0.11958   1.00
H2       0.08779    0.67865    -0.11383   1.00
H2       0.18803    0.55653    0.12975   1.00
H2       0.07449    0.62954    -0.12149   1.00
H2       0.20860    0.55571    0.08261   1.00
H2       0.06851    0.65076    -0.07502   1.00
C4       0.74654    0.24669    0.48025   1.00
C4       0.74501    0.24695    0.52191   1.00
C3       0.76942    0.21925    0.45897   1.00
C3       0.76289    0.21738    0.54504   1.00
C3       0.72458    0.27476    0.45854   1.00
C3       0.72491    0.27770    0.54170   1.00
C2       0.74815    0.24490    0.39595   1.00
C2       0.74358    0.24847    0.60622   1.00
C3       0.77010    0.21820    0.41811   1.00
C3       0.76241    0.21816    0.58591   1.00
C3       0.72589    0.27256    0.41696   1.00
C3       0.72528    0.27754    0.58336   1.00
H1       0.78675    0.19924    0.47237   1.00
H1       0.77661    0.19396    0.53306   1.00
C5       0.70229    0.30413    0.47835   1.00
C5       0.70496    0.30739    0.51998   1.00
H1       0.78707    0.19759    0.40451   1.00
H1       0.77599    0.19605    0.60091   1.00
H1       0.71046    0.29185    0.40052   1.00
H1       0.71154    0.29905    0.59848   1.00
C6       0.67596    0.33097    0.45515   1.00
C6       0.68739    0.34195    0.54119   1.00
H2       0.66022    0.31387    0.43345   1.00
H2       0.70800    0.35225    0.56310   1.00
H2       0.65220    0.34227    0.47286   1.00
H2       0.68495    0.36730    0.52228   1.00
C6       0.69827    0.36605    0.43606   1.00
C6       0.64641    0.33298    0.55942   1.00
H2       0.72539    0.35558    0.42292   1.00
H2       0.64713    0.30453    0.57383   1.00
C6       0.67605    0.39060    0.40459   1.00
C6       0.62942    0.36326    0.58911   1.00
H2       0.70733    0.38568    0.45949   1.00
H2       0.62563    0.32973    0.53546   1.00
C6       0.66755    0.36630    0.36735   1.00
C6       0.65401    0.36506    0.62708   1.00
C6       0.63723    0.40721    0.42074   1.00
C6       0.62679    0.40463    0.57107   1.00
C6       0.70222    0.42555    0.39245   1.00
C6       0.58753    0.35031    0.60054   1.00
H2       0.69432    0.35363    0.35558   1.00
H2       0.65696    0.33617    0.64020   1.00
H2       0.64730    0.34255    0.37330   1.00
H2       0.68321    0.37630    0.62154   1.00
H2       0.65451    0.38436    0.34459   1.00
H2       0.64046    0.38419    0.64863   1.00
H2       0.62336    0.42652    0.39955   1.00
H2       0.61236    0.42489    0.59098   1.00
H2       0.61667    0.38383    0.42725   1.00
H2       0.65575    0.41626    0.56494   1.00
H2       0.64229    0.42377    0.44745   1.00
H2       0.61030    0.40404    0.54385   1.00
H2       0.72992    0.41539    0.38042   1.00
H2       0.58779    0.32135    0.61383   1.00
H2       0.68803    0.44347    0.37025   1.00
H2       0.57449    0.37046    0.62149   1.00
H2       0.70860    0.44429    0.41739   1.00
H2       0.56851    0.34924    0.57502   1.00
C4       0.74669    0.48025    0.24654   1.00
C4       0.74695    0.52191    0.24501   1.00
C3       0.71925    0.45897    0.26942   1.00
C3       0.71738    0.54504    0.26289   1.00
C3       0.77476    0.45854    0.22458   1.00
C3       0.77770    0.54170    0.22491   1.00
C2       0.74490    0.39595    0.24815   1.00
C2       0.74847    0.60622    0.24358   1.00
C3       0.71820    0.41811    0.27010   1.00
C3       0.71816    0.58591    0.26241   1.00
C3       0.77256    0.41696    0.22589   1.00
C3       0.77754    0.58336    0.22528   1.00
H1       0.69924    0.47237    0.28675   1.00
H1       0.69396    0.53306    0.27661   1.00
C5       0.80413    0.47835    0.20229   1.00
C5       0.80739    0.51998    0.20496   1.00
H1       0.69759    0.40451    0.28707   1.00
H1       0.69605    0.60091    0.27599   1.00
H1       0.79185    0.40052    0.21046   1.00
H1       0.79905    0.59848    0.21154   1.00
C6       0.83097    0.45515    0.17596   1.00
C6       0.84195    0.54119    0.18739   1.00
H2       0.81387    0.43345    0.16022   1.00
H2       0.85225    0.56310    0.20800   1.00
H2       0.84227    0.47286    0.15220   1.00
H2       0.86730    0.52228    0.18495   1.00
C6       0.86605    0.43606    0.19827   1.00
C6       0.83298    0.55942    0.14641   1.00
H2       0.85558    0.42292    0.22539   1.00
H2       0.80453    0.57383    0.14713   1.00
C6       0.89060    0.40459    0.17605   1.00
C6       0.86326    0.58911    0.12942   1.00
H2       0.88568    0.45949    0.20733   1.00
H2       0.82973    0.53546    0.12563   1.00
C6       0.86630    0.36735    0.16755   1.00
C6       0.86506    0.62708    0.15401   1.00
C6       0.90721    0.42074    0.13723   1.00
C6       0.90463    0.57107    0.12679   1.00
C6       0.92555    0.39245    0.20222   1.00
C6       0.85031    0.60054    0.08753   1.00
H2       0.85363    0.35558    0.19432   1.00
H2       0.83617    0.64020    0.15696   1.00
H2       0.84255    0.37330    0.14730   1.00
H2       0.87630    0.62154    0.18321   1.00
H2       0.88436    0.34459    0.15451   1.00
H2       0.88419    0.64863    0.14046   1.00
H2       0.92652    0.39955    0.12336   1.00
H2       0.92489    0.59098    0.11236   1.00
H2       0.88383    0.42725    0.11667   1.00
H2       0.91626    0.56494    0.15575   1.00
H2       0.92377    0.44745    0.14229   1.00
H2       0.90404    0.54385    0.11030   1.00
H2       0.91539    0.38042    0.22992   1.00
H2       0.82135    0.61383    0.08779   1.00
H2       0.94347    0.37025    0.18803   1.00
H2       0.87046    0.62149    0.07449   1.00
H2       0.94429    0.41739    0.20860   1.00
H2       0.84924    0.57502    0.06851   1.00
C4       0.51975    0.24654    0.25331   1.00
C4       0.47809    0.24501    0.25305   1.00
C3       0.54103    0.26942    0.28075   1.00
C3       0.45496    0.26289    0.28262   1.00
C3       0.54146    0.22458    0.22524   1.00
C3       0.45830    0.22491    0.22230   1.00
C2       0.60405    0.24815    0.25510   1.00
C2       0.39378    0.24358    0.25153   1.00
C3       0.58189    0.27010    0.28180   1.00
C3       0.41409    0.26241    0.28184   1.00
C3       0.58304    0.22589    0.22744   1.00
C3       0.41664    0.22528    0.22246   1.00
H1       0.52763    0.28675    0.30076   1.00
H1       0.46694    0.27661    0.30604   1.00
C5       0.52165    0.20229    0.19587   1.00
C5       0.48002    0.20496    0.19261   1.00
H1       0.59549    0.28707    0.30241   1.00
H1       0.39909    0.27599    0.30395   1.00
H1       0.59948    0.21046    0.20815   1.00
H1       0.40152    0.21154    0.20095   1.00
C6       0.54485    0.17596    0.16903   1.00
C6       0.45881    0.18739    0.15805   1.00
H2       0.56655    0.16022    0.18613   1.00
H2       0.43690    0.20800    0.14775   1.00
H2       0.52714    0.15220    0.15773   1.00
H2       0.47772    0.18495    0.13270   1.00
C6       0.56394    0.19827    0.13395   1.00
C6       0.44058    0.14641    0.16702   1.00
H2       0.57708    0.22539    0.14442   1.00
H2       0.42617    0.14713    0.19547   1.00
C6       0.59541    0.17605    0.10940   1.00
C6       0.41089    0.12942    0.13674   1.00
H2       0.54051    0.20733    0.11432   1.00
H2       0.46454    0.12563    0.17027   1.00
C6       0.63265    0.16755    0.13370   1.00
C6       0.37292    0.15401    0.13494   1.00
C6       0.57926    0.13723    0.09279   1.00
C6       0.42893    0.12679    0.09537   1.00
C6       0.60755    0.20222    0.07445   1.00
C6       0.39946    0.08753    0.14969   1.00
H2       0.64442    0.19432    0.14637   1.00
H2       0.35980    0.15696    0.16383   1.00
H2       0.62670    0.14730    0.15745   1.00
H2       0.37846    0.18321    0.12370   1.00
H2       0.65541    0.15451    0.11564   1.00
H2       0.35137    0.14046    0.11581   1.00
H2       0.60045    0.12336    0.07348   1.00
H2       0.40902    0.11236    0.07511   1.00
H2       0.57275    0.11667    0.11617   1.00
H2       0.43506    0.15575    0.08374   1.00
H2       0.55255    0.14229    0.07623   1.00
H2       0.45615    0.11030    0.09596   1.00
H2       0.61958    0.22992    0.08461   1.00
H2       0.38617    0.08779    0.17865   1.00
H2       0.62975    0.18803    0.05653   1.00
H2       0.37851    0.07449    0.12954   1.00
H2       0.58261    0.20860    0.05571   1.00
H2       0.42498    0.06851    0.15076   1.00
C4       0.98025    0.24654    0.24669   1.00
C4       1.02191    0.24501    0.24695   1.00
C3       0.95897    0.26942    0.21925   1.00
C3       1.04504    0.26289    0.21738   1.00
C3       0.95854    0.22458    0.27476   1.00
C3       1.04170    0.22491    0.27770   1.00
C2       0.89595    0.24815    0.24490   1.00
C2       1.10622    0.24358    0.24847   1.00
C3       0.91811    0.27010    0.21820   1.00
C3       1.08591    0.26241    0.21816   1.00
C3       0.91696    0.22589    0.27256   1.00
C3       1.08336    0.22528    0.27754   1.00
H1       0.97237    0.28675    0.19924   1.00
H1       1.03306    0.27661    0.19396   1.00
C5       0.97835    0.20229    0.30413   1.00
C5       1.01998    0.20496    0.30739   1.00
H1       0.90451    0.28707    0.19759   1.00
H1       1.10091    0.27599    0.19605   1.00
H1       0.90052    0.21046    0.29185   1.00
H1       1.09848    0.21154    0.29905   1.00
C6       0.95515    0.17596    0.33097   1.00
C6       1.04119    0.18739    0.34195   1.00
H2       0.93345    0.16022    0.31387   1.00
H2       1.06310    0.20800    0.35225   1.00
H2       0.97286    0.15220    0.34227   1.00
H2       1.02228    0.18495    0.36730   1.00
C6       0.93606    0.19827    0.36605   1.00
C6       1.05942    0.14641    0.33298   1.00
H2       0.92292    0.22539    0.35558   1.00
H2       1.07383    0.14713    0.30453   1.00
C6       0.90459    0.17605    0.39060   1.00
C6       1.08911    0.12942    0.36326   1.00
H2       0.95949    0.20733    0.38568   1.00
H2       1.03546    0.12563    0.32973   1.00
C6       0.86735    0.16755    0.36630   1.00
C6       1.12708    0.15401    0.36506   1.00
C6       0.92074    0.13723    0.40721   1.00
C6       1.07107    0.12679    0.40463   1.00
C6       0.89245    0.20222    0.42555   1.00
C6       1.10054    0.08753    0.35031   1.00
H2       0.85558    0.19432    0.35363   1.00
H2       1.14020    0.15696    0.33617   1.00
H2       0.87330    0.14730    0.34255   1.00
H2       1.12154    0.18321    0.37630   1.00
H2       0.84459    0.15451    0.38436   1.00
H2       1.14863    0.14046    0.38419   1.00
H2       0.89955    0.12336    0.42652   1.00
H2       1.09098    0.11236    0.42489   1.00
H2       0.92725    0.11667    0.38383   1.00
H2       1.06494    0.15575    0.41626   1.00
H2       0.94745    0.14229    0.42377   1.00
H2       1.04385    0.11030    0.40404   1.00
H2       0.88042    0.22992    0.41539   1.00
H2       1.11383    0.08779    0.32135   1.00
H2       0.87025    0.18803    0.44347   1.00
H2       1.12149    0.07449    0.37046   1.00
H2       0.91739    0.20860    0.44429   1.00
H2       1.07502    0.06851    0.34924   1.00
C4       0.75331    0.01975    0.24654   1.00
C4       0.75305    -0.02191   0.24501   1.00
C3       0.78075    0.04103    0.26942   1.00
C3       0.78262    -0.04504   0.26289   1.00
C3       0.72524    0.04146    0.22458   1.00
C3       0.72230    -0.04170   0.22491   1.00
C2       0.75510    0.10405    0.24815   1.00
C2       0.75153    -0.10622   0.24358   1.00
C3       0.78180    0.08189    0.27010   1.00
C3       0.78184    -0.08591   0.26241   1.00
C3       0.72744    0.08304    0.22589   1.00
C3       0.72246    -0.08336   0.22528   1.00
H1       0.80076    0.02763    0.28675   1.00
H1       0.80604    -0.03306   0.27661   1.00
C5       0.69587    0.02165    0.20229   1.00
C5       0.69261    -0.01998   0.20496   1.00
H1       0.80241    0.09549    0.28707   1.00
H1       0.80395    -0.10091   0.27599   1.00
H1       0.70815    0.09948    0.21046   1.00
H1       0.70095    -0.09848   0.21154   1.00
C6       0.66903    0.04485    0.17596   1.00
C6       0.65805    -0.04119   0.18739   1.00
H2       0.68613    0.06655    0.16022   1.00
H2       0.64775    -0.06310   0.20800   1.00
H2       0.65773    0.02714    0.15220   1.00
H2       0.63270    -0.02228   0.18495   1.00
C6       0.63395    0.06394    0.19827   1.00
C6       0.66702    -0.05942   0.14641   1.00
H2       0.64442    0.07708    0.22539   1.00
H2       0.69547    -0.07383   0.14713   1.00
C6       0.60940    0.09541    0.17605   1.00
C6       0.63674    -0.08911   0.12942   1.00
H2       0.61432    0.04051    0.20733   1.00
H2       0.67027    -0.03546   0.12563   1.00
C6       0.63370    0.13265    0.16755   1.00
C6       0.63494    -0.12708   0.15401   1.00
C6       0.59279    0.07926    0.13723   1.00
C6       0.59537    -0.07107   0.12679   1.00
C6       0.57445    0.10755    0.20222   1.00
C6       0.64969    -0.10054   0.08753   1.00
H2       0.64637    0.14442    0.19432   1.00
H2       0.66383    -0.14020   0.15696   1.00
H2       0.65745    0.12670    0.14730   1.00
H2       0.62370    -0.12154   0.18321   1.00
H2       0.61564    0.15541    0.15451   1.00
H2       0.61581    -0.14863   0.14046   1.00
H2       0.57348    0.10045    0.12336   1.00
H2       0.57511    -0.09098   0.11236   1.00
H2       0.61617    0.07275    0.11667   1.00
H2       0.58374    -0.06494   0.15575   1.00
H2       0.57623    0.05255    0.14229   1.00
H2       0.59596    -0.04385   0.11030   1.00
H2       0.58461    0.11958    0.22992   1.00
H2       0.67865    -0.11383   0.08779   1.00
H2       0.55653    0.12975    0.18803   1.00
H2       0.62954    -0.12149   0.07449   1.00
H2       0.55571    0.08261    0.20860   1.00
H2       0.65076    -0.07502   0.06851   1.00
C4       0.74654    0.25331    0.01975   1.00
C4       0.74501    0.25305    -0.02191   1.00
C3       0.76942    0.28075    0.04103   1.00
C3       0.76289    0.28262    -0.04504   1.00
C3       0.72458    0.22524    0.04146   1.00
C3       0.72491    0.22230    -0.04170   1.00
C2       0.74815    0.25510    0.10405   1.00
C2       0.74358    0.25153    -0.10622   1.00
C3       0.77010    0.28180    0.08189   1.00
C3       0.76241    0.28184    -0.08591   1.00
C3       0.72589    0.22744    0.08304   1.00
C3       0.72528    0.22246    -0.08336   1.00
H1       0.78675    0.30076    0.02763   1.00
H1       0.77661    0.30604    -0.03306   1.00
C5       0.70229    0.19587    0.02165   1.00
C5       0.70496    0.19261    -0.01998   1.00
H1       0.78707    0.30241    0.09549   1.00
H1       0.77599    0.30395    -0.10091   1.00
H1       0.71046    0.20815    0.09948   1.00
H1       0.71154    0.20095    -0.09848   1.00
C6       0.67596    0.16903    0.04485   1.00
C6       0.68739    0.15805    -0.04119   1.00
H2       0.66022    0.18613    0.06655   1.00
H2       0.70800    0.14775    -0.06310   1.00
H2       0.65220    0.15773    0.02714   1.00
H2       0.68495    0.13270    -0.02228   1.00
C6       0.69827    0.13395    0.06394   1.00
C6       0.64641    0.16702    -0.05942   1.00
H2       0.72539    0.14442    0.07708   1.00
H2       0.64713    0.19547    -0.07383   1.00
C6       0.67605    0.10940    0.09541   1.00
C6       0.62942    0.13674    -0.08911   1.00
H2       0.70733    0.11432    0.04051   1.00
H2       0.62563    0.17027    -0.03546   1.00
C6       0.66755    0.13370    0.13265   1.00
C6       0.65401    0.13494    -0.12708   1.00
C6       0.63723    0.09279    0.07926   1.00
C6       0.62679    0.09537    -0.07107   1.00
C6       0.70222    0.07445    0.10755   1.00
C6       0.58753    0.14969    -0.10054   1.00
H2       0.69432    0.14637    0.14442   1.00
H2       0.65696    0.16383    -0.14020   1.00
H2       0.64730    0.15745    0.12670   1.00
H2       0.68321    0.12370    -0.12154   1.00
H2       0.65451    0.11564    0.15541   1.00
H2       0.64046    0.11581    -0.14863   1.00
H2       0.62336    0.07348    0.10045   1.00
H2       0.61236    0.07511    -0.09098   1.00
H2       0.61667    0.11617    0.07275   1.00
H2       0.65575    0.08374    -0.06494   1.00
H2       0.64229    0.07623    0.05255   1.00
H2       0.61030    0.09596    -0.04385   1.00
H2       0.72992    0.08461    0.11958   1.00
H2       0.58779    0.17865    -0.11383   1.00
H2       0.68803    0.05653    0.12975   1.00
H2       0.57449    0.12954    -0.12149   1.00
H2       0.70860    0.05571    0.08261   1.00
H2       0.56851    0.15076    -0.07502   1.00
C4       0.91154    0.91169    1.14525   1.00
C4       0.91001    0.91195    1.18691   1.00
C3       0.93442    0.88425    1.12397   1.00
C3       0.92789    0.88238    1.21004   1.00
C3       0.88958    0.93976    1.12354   1.00
C3       0.88991    0.94270    1.20670   1.00
C2       0.91315    0.90990    1.06095   1.00
C2       0.90858    0.91347    1.27122   1.00
C3       0.93510    0.88320    1.08311   1.00
C3       0.92741    0.88316    1.25091   1.00
C3       0.89089    0.93756    1.08196   1.00
C3       0.89028    0.94254    1.24836   1.00
H1       0.95175    0.86424    1.13737   1.00
H1       0.94161    0.85896    1.19806   1.00
C5       0.86729    0.96913    1.14335   1.00
C5       0.86996    0.97239    1.18498   1.00
H1       0.95207    0.86259    1.06951   1.00
H1       0.94099    0.86105    1.26591   1.00
H1       0.87546    0.95685    1.06552   1.00
H1       0.87654    0.96405    1.26348   1.00
C6       0.84096    0.99597    1.12015   1.00
C6       0.85239    1.00695    1.20619   1.00
H2       0.82522    0.97887    1.09845   1.00
H2       0.87300    1.01725    1.22810   1.00
H2       0.81720    1.00727    1.13786   1.00
H2       0.84995    1.03230    1.18728   1.00
C6       0.86327    1.03105    1.10106   1.00
C6       0.81141    0.99798    1.22442   1.00
H2       0.89039    1.02058    1.08792   1.00
H2       0.81213    0.96953    1.23883   1.00
C6       0.84105    1.05560    1.06959   1.00
C6       0.79442    1.02826    1.25411   1.00
H2       0.87233    1.05068    1.12449   1.00
H2       0.79063    0.99473    1.20046   1.00
C6       0.83255    1.03130    1.03235   1.00
C6       0.81901    1.03006    1.29208   1.00
C6       0.80223    1.07221    1.08574   1.00
C6       0.79179    1.06963    1.23607   1.00
C6       0.86722    1.09055    1.05745   1.00
C6       0.75253    1.01531    1.26554   1.00
H2       0.85932    1.01863    1.02058   1.00
H2       0.82196    1.00117    1.30520   1.00
H2       0.81230    1.00755    1.03830   1.00
H2       0.84821    1.04130    1.28654   1.00
H2       0.81951    1.04936    1.00959   1.00
H2       0.80546    1.04919    1.31363   1.00
H2       0.78836    1.09152    1.06455   1.00
H2       0.77736    1.08989    1.25598   1.00
H2       0.78167    1.04883    1.09225   1.00
H2       0.82075    1.08126    1.22994   1.00
H2       0.80729    1.08877    1.11245   1.00
H2       0.77530    1.06904    1.20885   1.00
H2       0.89492    1.08039    1.04542   1.00
H2       0.75279    0.98635    1.27883   1.00
H2       0.85303    1.10847    1.03525   1.00
H2       0.73949    1.03546    1.28649   1.00
H2       0.87360    1.10929    1.08239   1.00
H2       0.73351    1.01424    1.24002   1.00
C4       0.91169    1.14525    0.91154   1.00
C4       0.91195    1.18691    0.91001   1.00
C3       0.88425    1.12397    0.93442   1.00
C3       0.88238    1.21004    0.92789   1.00
C3       0.93976    1.12354    0.88958   1.00
C3       0.94270    1.20670    0.88991   1.00
C2       0.90990    1.06095    0.91315   1.00
C2       0.91347    1.27122    0.90858   1.00
C3       0.88320    1.08311    0.93510   1.00
C3       0.88316    1.25091    0.92741   1.00
C3       0.93756    1.08196    0.89089   1.00
C3       0.94254    1.24836    0.89028   1.00
H1       0.86424    1.13737    0.95175   1.00
H1       0.85896    1.19806    0.94161   1.00
C5       0.96913    1.14335    0.86729   1.00
C5       0.97239    1.18498    0.86996   1.00
H1       0.86259    1.06951    0.95207   1.00
H1       0.86105    1.26591    0.94099   1.00
H1       0.95685    1.06552    0.87546   1.00
H1       0.96405    1.26348    0.87654   1.00
C6       0.99597    1.12015    0.84096   1.00
C6       1.00695    1.20619    0.85239   1.00
H2       0.97887    1.09845    0.82522   1.00
H2       1.01725    1.22810    0.87300   1.00
H2       1.00727    1.13786    0.81720   1.00
H2       1.03230    1.18728    0.84995   1.00
C6       1.03105    1.10106    0.86327   1.00
C6       0.99798    1.22442    0.81141   1.00
H2       1.02058    1.08792    0.89039   1.00
H2       0.96953    1.23883    0.81213   1.00
C6       1.05560    1.06959    0.84105   1.00
C6       1.02826    1.25411    0.79442   1.00
H2       1.05068    1.12449    0.87233   1.00
H2       0.99473    1.20046    0.79063   1.00
C6       1.03130    1.03235    0.83255   1.00
C6       1.03006    1.29208    0.81901   1.00
C6       1.07221    1.08574    0.80223   1.00
C6       1.06963    1.23607    0.79179   1.00
C6       1.09055    1.05745    0.86722   1.00
C6       1.01531    1.26554    0.75253   1.00
H2       1.01863    1.02058    0.85932   1.00
H2       1.00117    1.30520    0.82196   1.00
H2       1.00755    1.03830    0.81230   1.00
H2       1.04130    1.28654    0.84821   1.00
H2       1.04936    1.00959    0.81951   1.00
H2       1.04919    1.31363    0.80546   1.00
H2       1.09152    1.06455    0.78836   1.00
H2       1.08989    1.25598    0.77736   1.00
H2       1.04883    1.09225    0.78167   1.00
H2       1.08126    1.22994    0.82075   1.00
H2       1.08877    1.11245    0.80729   1.00
H2       1.06904    1.20885    0.77530   1.00
H2       1.08039    1.04542    0.89492   1.00
H2       0.98635    1.27883    0.75279   1.00
H2       1.10847    1.03525    0.85303   1.00
H2       1.03546    1.28649    0.73949   1.00
H2       1.10929    1.08239    0.87360   1.00
H2       1.01424    1.24002    0.73351   1.00
C4       0.68475    0.91154    0.91831   1.00
C4       0.64309    0.91001    0.91805   1.00
C3       0.70603    0.93442    0.94575   1.00
C3       0.61996    0.92789    0.94762   1.00
C3       0.70646    0.88958    0.89024   1.00
C3       0.62330    0.88991    0.88730   1.00
C2       0.76905    0.91315    0.92010   1.00
C2       0.55878    0.90858    0.91653   1.00
C3       0.74689    0.93510    0.94680   1.00
C3       0.57909    0.92741    0.94684   1.00
C3       0.74804    0.89089    0.89244   1.00
C3       0.58164    0.89028    0.88746   1.00
H1       0.69263    0.95175    0.96576   1.00
H1       0.63194    0.94161    0.97104   1.00
C5       0.68665    0.86729    0.86087   1.00
C5       0.64502    0.86996    0.85761   1.00
H1       0.76049    0.95207    0.96741   1.00
H1       0.56409    0.94099    0.96895   1.00
H1       0.76448    0.87546    0.87315   1.00
H1       0.56652    0.87654    0.86595   1.00
C6       0.70985    0.84096    0.83403   1.00
C6       0.62381    0.85239    0.82305   1.00
H2       0.73155    0.82522    0.85113   1.00
H2       0.60190    0.87300    0.81275   1.00
H2       0.69214    0.81720    0.82273   1.00
H2       0.64272    0.84995    0.79770   1.00
C6       0.72894    0.86327    0.79895   1.00
C6       0.60558    0.81141    0.83202   1.00
H2       0.74208    0.89039    0.80942   1.00
H2       0.59117    0.81213    0.86047   1.00
C6       0.76041    0.84105    0.77440   1.00
C6       0.57589    0.79442    0.80174   1.00
H2       0.70551    0.87233    0.77932   1.00
H2       0.62954    0.79063    0.83527   1.00
C6       0.79765    0.83255    0.79870   1.00
C6       0.53792    0.81901    0.79994   1.00
C6       0.74426    0.80223    0.75779   1.00
C6       0.59393    0.79179    0.76037   1.00
C6       0.77255    0.86722    0.73945   1.00
C6       0.56446    0.75253    0.81469   1.00
H2       0.80942    0.85932    0.81137   1.00
H2       0.52480    0.82196    0.82883   1.00
H2       0.79170    0.81230    0.82245   1.00
H2       0.54346    0.84821    0.78870   1.00
H2       0.82041    0.81951    0.78064   1.00
H2       0.51637    0.80546    0.78081   1.00
H2       0.76545    0.78836    0.73848   1.00
H2       0.57402    0.77736    0.74011   1.00
H2       0.73775    0.78167    0.78117   1.00
H2       0.60006    0.82075    0.74874   1.00
H2       0.71755    0.80729    0.74123   1.00
H2       0.62115    0.77530    0.76096   1.00
H2       0.78458    0.89492    0.74961   1.00
H2       0.55117    0.75279    0.84365   1.00
H2       0.79475    0.85303    0.72153   1.00
H2       0.54351    0.73949    0.79454   1.00
H2       0.74761    0.87360    0.72071   1.00
H2       0.58998    0.73351    0.81576   1.00
C4       1.14525    0.91154    0.91169   1.00
C4       1.18691    0.91001    0.91195   1.00
C3       1.12397    0.93442    0.88425   1.00
C3       1.21004    0.92789    0.88238   1.00
C3       1.12354    0.88958    0.93976   1.00
C3       1.20670    0.88991    0.94270   1.00
C2       1.06095    0.91315    0.90990   1.00
C2       1.27122    0.90858    0.91347   1.00
C3       1.08311    0.93510    0.88320   1.00
C3       1.25091    0.92741    0.88316   1.00
C3       1.08196    0.89089    0.93756   1.00
C3       1.24836    0.89028    0.94254   1.00
H1       1.13737    0.95175    0.86424   1.00
H1       1.19806    0.94161    0.85896   1.00
C5       1.14335    0.86729    0.96913   1.00
C5       1.18498    0.86996    0.97239   1.00
H1       1.06951    0.95207    0.86259   1.00
H1       1.26591    0.94099    0.86105   1.00
H1       1.06552    0.87546    0.95685   1.00
H1       1.26348    0.87654    0.96405   1.00
C6       1.12015    0.84096    0.99597   1.00
C6       1.20619    0.85239    1.00695   1.00
H2       1.09845    0.82522    0.97887   1.00
H2       1.22810    0.87300    1.01725   1.00
H2       1.13786    0.81720    1.00727   1.00
H2       1.18728    0.84995    1.03230   1.00
C6       1.10106    0.86327    1.03105   1.00
C6       1.22442    0.81141    0.99798   1.00
H2       1.08792    0.89039    1.02058   1.00
H2       1.23883    0.81213    0.96953   1.00
C6       1.06959    0.84105    1.05560   1.00
C6       1.25411    0.79442    1.02826   1.00
H2       1.12449    0.87233    1.05068   1.00
H2       1.20046    0.79063    0.99473   1.00
C6       1.03235    0.83255    1.03130   1.00
C6       1.29208    0.81901    1.03006   1.00
C6       1.08574    0.80223    1.07221   1.00
C6       1.23607    0.79179    1.06963   1.00
C6       1.05745    0.86722    1.09055   1.00
C6       1.26554    0.75253    1.01531   1.00
H2       1.02058    0.85932    1.01863   1.00
H2       1.30520    0.82196    1.00117   1.00
H2       1.03830    0.81230    1.00755   1.00
H2       1.28654    0.84821    1.04130   1.00
H2       1.00959    0.81951    1.04936   1.00
H2       1.31363    0.80546    1.04919   1.00
H2       1.06455    0.78836    1.09152   1.00
H2       1.25598    0.77736    1.08989   1.00
H2       1.09225    0.78167    1.04883   1.00
H2       1.22994    0.82075    1.08126   1.00
H2       1.11245    0.80729    1.08877   1.00
H2       1.20885    0.77530    1.06904   1.00
H2       1.04542    0.89492    1.08039   1.00
H2       1.27883    0.75279    0.98635   1.00
H2       1.03525    0.85303    1.10847   1.00
H2       1.28649    0.73949    1.03546   1.00
H2       1.08239    0.87360    1.10929   1.00
H2       1.24002    0.73351    1.01424   1.00
C4       0.91831    0.68475    0.91154   1.00
C4       0.91805    0.64309    0.91001   1.00
C3       0.94575    0.70603    0.93442   1.00
C3       0.94762    0.61996    0.92789   1.00
C3       0.89024    0.70646    0.88958   1.00
C3       0.88730    0.62330    0.88991   1.00
C2       0.92010    0.76905    0.91315   1.00
C2       0.91653    0.55878    0.90858   1.00
C3       0.94680    0.74689    0.93510   1.00
C3       0.94684    0.57909    0.92741   1.00
C3       0.89244    0.74804    0.89089   1.00
C3       0.88746    0.58164    0.89028   1.00
H1       0.96576    0.69263    0.95175   1.00
H1       0.97104    0.63194    0.94161   1.00
C5       0.86087    0.68665    0.86729   1.00
C5       0.85761    0.64502    0.86996   1.00
H1       0.96741    0.76049    0.95207   1.00
H1       0.96895    0.56409    0.94099   1.00
H1       0.87315    0.76448    0.87546   1.00
H1       0.86595    0.56652    0.87654   1.00
C6       0.83403    0.70985    0.84096   1.00
C6       0.82305    0.62381    0.85239   1.00
H2       0.85113    0.73155    0.82522   1.00
H2       0.81275    0.60190    0.87300   1.00
H2       0.82273    0.69214    0.81720   1.00
H2       0.79770    0.64272    0.84995   1.00
C6       0.79895    0.72894    0.86327   1.00
C6       0.83202    0.60558    0.81141   1.00
H2       0.80942    0.74208    0.89039   1.00
H2       0.86047    0.59117    0.81213   1.00
C6       0.77440    0.76041    0.84105   1.00
C6       0.80174    0.57589    0.79442   1.00
H2       0.77932    0.70551    0.87233   1.00
H2       0.83527    0.62954    0.79063   1.00
C6       0.79870    0.79765    0.83255   1.00
C6       0.79994    0.53792    0.81901   1.00
C6       0.75779    0.74426    0.80223   1.00
C6       0.76037    0.59393    0.79179   1.00
C6       0.73945    0.77255    0.86722   1.00
C6       0.81469    0.56446    0.75253   1.00
H2       0.81137    0.80942    0.85932   1.00
H2       0.82883    0.52480    0.82196   1.00
H2       0.82245    0.79170    0.81230   1.00
H2       0.78870    0.54346    0.84821   1.00
H2       0.78064    0.82041    0.81951   1.00
H2       0.78081    0.51637    0.80546   1.00
H2       0.73848    0.76545    0.78836   1.00
H2       0.74011    0.57402    0.77736   1.00
H2       0.78117    0.73775    0.78167   1.00
H2       0.74874    0.60006    0.82075   1.00
H2       0.74123    0.71755    0.80729   1.00
H2       0.76096    0.62115    0.77530   1.00
H2       0.74961    0.78458    0.89492   1.00
H2       0.84365    0.55117    0.75279   1.00
H2       0.72153    0.79475    0.85303   1.00
H2       0.79454    0.54351    0.73949   1.00
H2       0.72071    0.74761    0.87360   1.00
H2       0.81576    0.58998    0.73351   1.00
C4       0.91154    0.91831    0.68475   1.00
C4       0.91001    0.91805    0.64309   1.00
C3       0.93442    0.94575    0.70603   1.00
C3       0.92789    0.94762    0.61996   1.00
C3       0.88958    0.89024    0.70646   1.00
C3       0.88991    0.88730    0.62330   1.00
C2       0.91315    0.92010    0.76905   1.00
C2       0.90858    0.91653    0.55878   1.00
C3       0.93510    0.94680    0.74689   1.00
C3       0.92741    0.94684    0.57909   1.00
C3       0.89089    0.89244    0.74804   1.00
C3       0.89028    0.88746    0.58164   1.00
H1       0.95175    0.96576    0.69263   1.00
H1       0.94161    0.97104    0.63194   1.00
C5       0.86729    0.86087    0.68665   1.00
C5       0.86996    0.85761    0.64502   1.00
H1       0.95207    0.96741    0.76049   1.00
H1       0.94099    0.96895    0.56409   1.00
H1       0.87546    0.87315    0.76448   1.00
H1       0.87654    0.86595    0.56652   1.00
C6       0.84096    0.83403    0.70985   1.00
C6       0.85239    0.82305    0.62381   1.00
H2       0.82522    0.85113    0.73155   1.00
H2       0.87300    0.81275    0.60190   1.00
H2       0.81720    0.82273    0.69214   1.00
H2       0.84995    0.79770    0.64272   1.00
C6       0.86327    0.79895    0.72894   1.00
C6       0.81141    0.83202    0.60558   1.00
H2       0.89039    0.80942    0.74208   1.00
H2       0.81213    0.86047    0.59117   1.00
C6       0.84105    0.77440    0.76041   1.00
C6       0.79442    0.80174    0.57589   1.00
H2       0.87233    0.77932    0.70551   1.00
H2       0.79063    0.83527    0.62954   1.00
C6       0.83255    0.79870    0.79765   1.00
C6       0.81901    0.79994    0.53792   1.00
C6       0.80223    0.75779    0.74426   1.00
C6       0.79179    0.76037    0.59393   1.00
C6       0.86722    0.73945    0.77255   1.00
C6       0.75253    0.81469    0.56446   1.00
H2       0.85932    0.81137    0.80942   1.00
H2       0.82196    0.82883    0.52480   1.00
H2       0.81230    0.82245    0.79170   1.00
H2       0.84821    0.78870    0.54346   1.00
H2       0.81951    0.78064    0.82041   1.00
H2       0.80546    0.78081    0.51637   1.00
H2       0.78836    0.73848    0.76545   1.00
H2       0.77736    0.74011    0.57402   1.00
H2       0.78167    0.78117    0.73775   1.00
H2       0.82075    0.74874    0.60006   1.00
H2       0.80729    0.74123    0.71755   1.00
H2       0.77530    0.76096    0.62115   1.00
H2       0.89492    0.74961    0.78458   1.00
H2       0.75279    0.84365    0.55117   1.00
H2       0.85303    0.72153    0.79475   1.00
H2       0.73949    0.79454    0.54351   1.00
H2       0.87360    0.72071    0.74761   1.00
H2       0.73351    0.81576    0.58998   1.00
C4       0.41154    0.41169    1.14525   1.00
C4       0.41001    0.41195    1.18691   1.00
C3       0.43442    0.38425    1.12397   1.00
C3       0.42789    0.38238    1.21004   1.00
C3       0.38958    0.43976    1.12354   1.00
C3       0.38991    0.44270    1.20670   1.00
C2       0.41315    0.40990    1.06095   1.00
C2       0.40858    0.41347    1.27122   1.00
C3       0.43510    0.38320    1.08311   1.00
C3       0.42741    0.38316    1.25091   1.00
C3       0.39089    0.43756    1.08196   1.00
C3       0.39028    0.44254    1.24836   1.00
H1       0.45175    0.36424    1.13737   1.00
H1       0.44161    0.35896    1.19806   1.00
C5       0.36729    0.46913    1.14335   1.00
C5       0.36996    0.47239    1.18498   1.00
H1       0.45207    0.36259    1.06951   1.00
H1       0.44099    0.36105    1.26591   1.00
H1       0.37546    0.45685    1.06552   1.00
H1       0.37654    0.46405    1.26348   1.00
C6       0.34096    0.49597    1.12015   1.00
C6       0.35239    0.50695    1.20619   1.00
H2       0.32522    0.47887    1.09845   1.00
H2       0.37300    0.51725    1.22810   1.00
H2       0.31720    0.50727    1.13786   1.00
H2       0.34995    0.53230    1.18728   1.00
C6       0.36327    0.53105    1.10106   1.00
C6       0.31141    0.49798    1.22442   1.00
H2       0.39039    0.52058    1.08792   1.00
H2       0.31213    0.46953    1.23883   1.00
C6       0.34105    0.55560    1.06959   1.00
C6       0.29442    0.52826    1.25411   1.00
H2       0.37233    0.55068    1.12449   1.00
H2       0.29063    0.49473    1.20046   1.00
C6       0.33255    0.53130    1.03235   1.00
C6       0.31901    0.53006    1.29208   1.00
C6       0.30223    0.57221    1.08574   1.00
C6       0.29179    0.56963    1.23607   1.00
C6       0.36722    0.59055    1.05745   1.00
C6       0.25253    0.51531    1.26554   1.00
H2       0.35932    0.51863    1.02058   1.00
H2       0.32196    0.50117    1.30520   1.00
H2       0.31230    0.50755    1.03830   1.00
H2       0.34821    0.54130    1.28654   1.00
H2       0.31951    0.54936    1.00959   1.00
H2       0.30546    0.54919    1.31363   1.00
H2       0.28836    0.59152    1.06455   1.00
H2       0.27736    0.58989    1.25598   1.00
H2       0.28167    0.54883    1.09225   1.00
H2       0.32075    0.58126    1.22994   1.00
H2       0.30729    0.58877    1.11245   1.00
H2       0.27530    0.56904    1.20885   1.00
H2       0.39492    0.58039    1.04542   1.00
H2       0.25279    0.48635    1.27883   1.00
H2       0.35303    0.60847    1.03525   1.00
H2       0.23949    0.53546    1.28649   1.00
H2       0.37360    0.60929    1.08239   1.00
H2       0.23351    0.51424    1.24002   1.00
C4       0.41169    0.64525    0.91154   1.00
C4       0.41195    0.68691    0.91001   1.00
C3       0.38425    0.62397    0.93442   1.00
C3       0.38238    0.71004    0.92789   1.00
C3       0.43976    0.62354    0.88958   1.00
C3       0.44270    0.70670    0.88991   1.00
C2       0.40990    0.56095    0.91315   1.00
C2       0.41347    0.77122    0.90858   1.00
C3       0.38320    0.58311    0.93510   1.00
C3       0.38316    0.75091    0.92741   1.00
C3       0.43756    0.58196    0.89089   1.00
C3       0.44254    0.74836    0.89028   1.00
H1       0.36424    0.63737    0.95175   1.00
H1       0.35896    0.69806    0.94161   1.00
C5       0.46913    0.64335    0.86729   1.00
C5       0.47239    0.68498    0.86996   1.00
H1       0.36259    0.56951    0.95207   1.00
H1       0.36105    0.76591    0.94099   1.00
H1       0.45685    0.56552    0.87546   1.00
H1       0.46405    0.76348    0.87654   1.00
C6       0.49597    0.62015    0.84096   1.00
C6       0.50695    0.70619    0.85239   1.00
H2       0.47887    0.59845    0.82522   1.00
H2       0.51725    0.72810    0.87300   1.00
H2       0.50727    0.63786    0.81720   1.00
H2       0.53230    0.68728    0.84995   1.00
C6       0.53105    0.60106    0.86327   1.00
C6       0.49798    0.72442    0.81141   1.00
H2       0.52058    0.58792    0.89039   1.00
H2       0.46953    0.73883    0.81213   1.00
C6       0.55560    0.56959    0.84105   1.00
C6       0.52826    0.75411    0.79442   1.00
H2       0.55068    0.62449    0.87233   1.00
H2       0.49473    0.70046    0.79063   1.00
C6       0.53130    0.53235    0.83255   1.00
C6       0.53006    0.79208    0.81901   1.00
C6       0.57221    0.58574    0.80223   1.00
C6       0.56963    0.73607    0.79179   1.00
C6       0.59055    0.55745    0.86722   1.00
C6       0.51531    0.76554    0.75253   1.00
H2       0.51863    0.52058    0.85932   1.00
H2       0.50117    0.80520    0.82196   1.00
H2       0.50755    0.53830    0.81230   1.00
H2       0.54130    0.78654    0.84821   1.00
H2       0.54936    0.50959    0.81951   1.00
H2       0.54919    0.81363    0.80546   1.00
H2       0.59152    0.56455    0.78836   1.00
H2       0.58989    0.75598    0.77736   1.00
H2       0.54883    0.59225    0.78167   1.00
H2       0.58126    0.72994    0.82075   1.00
H2       0.58877    0.61245    0.80729   1.00
H2       0.56904    0.70885    0.77530   1.00
H2       0.58039    0.54542    0.89492   1.00
H2       0.48635    0.77883    0.75279   1.00
H2       0.60847    0.53525    0.85303   1.00
H2       0.53546    0.78649    0.73949   1.00
H2       0.60929    0.58239    0.87360   1.00
H2       0.51424    0.74002    0.73351   1.00
C4       0.18475    0.41154    0.91831   1.00
C4       0.14309    0.41001    0.91805   1.00
C3       0.20603    0.43442    0.94575   1.00
C3       0.11996    0.42789    0.94762   1.00
C3       0.20646    0.38958    0.89024   1.00
C3       0.12330    0.38991    0.88730   1.00
C2       0.26905    0.41315    0.92010   1.00
C2       0.05878    0.40858    0.91653   1.00
C3       0.24689    0.43510    0.94680   1.00
C3       0.07909    0.42741    0.94684   1.00
C3       0.24804    0.39089    0.89244   1.00
C3       0.08164    0.39028    0.88746   1.00
H1       0.19263    0.45175    0.96576   1.00
H1       0.13194    0.44161    0.97104   1.00
C5       0.18665    0.36729    0.86087   1.00
C5       0.14502    0.36996    0.85761   1.00
H1       0.26049    0.45207    0.96741   1.00
H1       0.06409    0.44099    0.96895   1.00
H1       0.26448    0.37546    0.87315   1.00
H1       0.06652    0.37654    0.86595   1.00
C6       0.20985    0.34096    0.83403   1.00
C6       0.12381    0.35239    0.82305   1.00
H2       0.23155    0.32522    0.85113   1.00
H2       0.10190    0.37300    0.81275   1.00
H2       0.19214    0.31720    0.82273   1.00
H2       0.14272    0.34995    0.79770   1.00
C6       0.22894    0.36327    0.79895   1.00
C6       0.10558    0.31141    0.83202   1.00
H2       0.24208    0.39039    0.80942   1.00
H2       0.09117    0.31213    0.86047   1.00
C6       0.26041    0.34105    0.77440   1.00
C6       0.07589    0.29442    0.80174   1.00
H2       0.20551    0.37233    0.77932   1.00
H2       0.12954    0.29063    0.83527   1.00
C6       0.29765    0.33255    0.79870   1.00
C6       0.03792    0.31901    0.79994   1.00
C6       0.24426    0.30223    0.75779   1.00
C6       0.09393    0.29179    0.76037   1.00
C6       0.27255    0.36722    0.73945   1.00
C6       0.06446    0.25253    0.81469   1.00
H2       0.30942    0.35932    0.81137   1.00
H2       0.02480    0.32196    0.82883   1.00
H2       0.29170    0.31230    0.82245   1.00
H2       0.04346    0.34821    0.78870   1.00
H2       0.32041    0.31951    0.78064   1.00
H2       0.01637    0.30546    0.78081   1.00
H2       0.26545    0.28836    0.73848   1.00
H2       0.07402    0.27736    0.74011   1.00
H2       0.23775    0.28167    0.78117   1.00
H2       0.10006    0.32075    0.74874   1.00
H2       0.21755    0.30729    0.74123   1.00
H2       0.12115    0.27530    0.76096   1.00
H2       0.28458    0.39492    0.74961   1.00
H2       0.05117    0.25279    0.84365   1.00
H2       0.29475    0.35303    0.72153   1.00
H2       0.04351    0.23949    0.79454   1.00
H2       0.24761    0.37360    0.72071   1.00
H2       0.08998    0.23351    0.81576   1.00
C4       0.64525    0.41154    0.91169   1.00
C4       0.68691    0.41001    0.91195   1.00
C3       0.62397    0.43442    0.88425   1.00
C3       0.71004    0.42789    0.88238   1.00
C3       0.62354    0.38958    0.93976   1.00
C3       0.70670    0.38991    0.94270   1.00
C2       0.56095    0.41315    0.90990   1.00
C2       0.77122    0.40858    0.91347   1.00
C3       0.58311    0.43510    0.88320   1.00
C3       0.75091    0.42741    0.88316   1.00
C3       0.58196    0.39089    0.93756   1.00
C3       0.74836    0.39028    0.94254   1.00
H1       0.63737    0.45175    0.86424   1.00
H1       0.69806    0.44161    0.85896   1.00
C5       0.64335    0.36729    0.96913   1.00
C5       0.68498    0.36996    0.97239   1.00
H1       0.56951    0.45207    0.86259   1.00
H1       0.76591    0.44099    0.86105   1.00
H1       0.56552    0.37546    0.95685   1.00
H1       0.76348    0.37654    0.96405   1.00
C6       0.62015    0.34096    0.99597   1.00
C6       0.70619    0.35239    1.00695   1.00
H2       0.59845    0.32522    0.97887   1.00
H2       0.72810    0.37300    1.01725   1.00
H2       0.63786    0.31720    1.00727   1.00
H2       0.68728    0.34995    1.03230   1.00
C6       0.60106    0.36327    1.03105   1.00
C6       0.72442    0.31141    0.99798   1.00
H2       0.58792    0.39039    1.02058   1.00
H2       0.73883    0.31213    0.96953   1.00
C6       0.56959    0.34105    1.05560   1.00
C6       0.75411    0.29442    1.02826   1.00
H2       0.62449    0.37233    1.05068   1.00
H2       0.70046    0.29063    0.99473   1.00
C6       0.53235    0.33255    1.03130   1.00
C6       0.79208    0.31901    1.03006   1.00
C6       0.58574    0.30223    1.07221   1.00
C6       0.73607    0.29179    1.06963   1.00
C6       0.55745    0.36722    1.09055   1.00
C6       0.76554    0.25253    1.01531   1.00
H2       0.52058    0.35932    1.01863   1.00
H2       0.80520    0.32196    1.00117   1.00
H2       0.53830    0.31230    1.00755   1.00
H2       0.78654    0.34821    1.04130   1.00
H2       0.50959    0.31951    1.04936   1.00
H2       0.81363    0.30546    1.04919   1.00
H2       0.56455    0.28836    1.09152   1.00
H2       0.75598    0.27736    1.08989   1.00
H2       0.59225    0.28167    1.04883   1.00
H2       0.72994    0.32075    1.08126   1.00
H2       0.61245    0.30729    1.08877   1.00
H2       0.70885    0.27530    1.06904   1.00
H2       0.54542    0.39492    1.08039   1.00
H2       0.77883    0.25279    0.98635   1.00
H2       0.53525    0.35303    1.10847   1.00
H2       0.78649    0.23949    1.03546   1.00
H2       0.58239    0.37360    1.10929   1.00
H2       0.74002    0.23351    1.01424   1.00
C4       0.41831    0.18475    0.91154   1.00
C4       0.41805    0.14309    0.91001   1.00
C3       0.44575    0.20603    0.93442   1.00
C3       0.44762    0.11996    0.92789   1.00
C3       0.39024    0.20646    0.88958   1.00
C3       0.38730    0.12330    0.88991   1.00
C2       0.42010    0.26905    0.91315   1.00
C2       0.41653    0.05878    0.90858   1.00
C3       0.44680    0.24689    0.93510   1.00
C3       0.44684    0.07909    0.92741   1.00
C3       0.39244    0.24804    0.89089   1.00
C3       0.38746    0.08164    0.89028   1.00
H1       0.46576    0.19263    0.95175   1.00
H1       0.47104    0.13194    0.94161   1.00
C5       0.36087    0.18665    0.86729   1.00
C5       0.35761    0.14502    0.86996   1.00
H1       0.46741    0.26049    0.95207   1.00
H1       0.46895    0.06409    0.94099   1.00
H1       0.37315    0.26448    0.87546   1.00
H1       0.36595    0.06652    0.87654   1.00
C6       0.33403    0.20985    0.84096   1.00
C6       0.32305    0.12381    0.85239   1.00
H2       0.35113    0.23155    0.82522   1.00
H2       0.31275    0.10190    0.87300   1.00
H2       0.32273    0.19214    0.81720   1.00
H2       0.29770    0.14272    0.84995   1.00
C6       0.29895    0.22894    0.86327   1.00
C6       0.33202    0.10558    0.81141   1.00
H2       0.30942    0.24208    0.89039   1.00
H2       0.36047    0.09117    0.81213   1.00
C6       0.27440    0.26041    0.84105   1.00
C6       0.30174    0.07589    0.79442   1.00
H2       0.27932    0.20551    0.87233   1.00
H2       0.33527    0.12954    0.79063   1.00
C6       0.29870    0.29765    0.83255   1.00
C6       0.29994    0.03792    0.81901   1.00
C6       0.25779    0.24426    0.80223   1.00
C6       0.26037    0.09393    0.79179   1.00
C6       0.23945    0.27255    0.86722   1.00
C6       0.31469    0.06446    0.75253   1.00
H2       0.31137    0.30942    0.85932   1.00
H2       0.32883    0.02480    0.82196   1.00
H2       0.32245    0.29170    0.81230   1.00
H2       0.28870    0.04346    0.84821   1.00
H2       0.28064    0.32041    0.81951   1.00
H2       0.28081    0.01637    0.80546   1.00
H2       0.23848    0.26545    0.78836   1.00
H2       0.24011    0.07402    0.77736   1.00
H2       0.28117    0.23775    0.78167   1.00
H2       0.24874    0.10006    0.82075   1.00
H2       0.24123    0.21755    0.80729   1.00
H2       0.26096    0.12115    0.77530   1.00
H2       0.24961    0.28458    0.89492   1.00
H2       0.34365    0.05117    0.75279   1.00
H2       0.22153    0.29475    0.85303   1.00
H2       0.29454    0.04351    0.73949   1.00
H2       0.22071    0.24761    0.87360   1.00
H2       0.31576    0.08998    0.73351   1.00
C4       0.41154    0.41831    0.68475   1.00
C4       0.41001    0.41805    0.64309   1.00
C3       0.43442    0.44575    0.70603   1.00
C3       0.42789    0.44762    0.61996   1.00
C3       0.38958    0.39024    0.70646   1.00
C3       0.38991    0.38730    0.62330   1.00
C2       0.41315    0.42010    0.76905   1.00
C2       0.40858    0.41653    0.55878   1.00
C3       0.43510    0.44680    0.74689   1.00
C3       0.42741    0.44684    0.57909   1.00
C3       0.39089    0.39244    0.74804   1.00
C3       0.39028    0.38746    0.58164   1.00
H1       0.45175    0.46576    0.69263   1.00
H1       0.44161    0.47104    0.63194   1.00
C5       0.36729    0.36087    0.68665   1.00
C5       0.36996    0.35761    0.64502   1.00
H1       0.45207    0.46741    0.76049   1.00
H1       0.44099    0.46895    0.56409   1.00
H1       0.37546    0.37315    0.76448   1.00
H1       0.37654    0.36595    0.56652   1.00
C6       0.34096    0.33403    0.70985   1.00
C6       0.35239    0.32305    0.62381   1.00
H2       0.32522    0.35113    0.73155   1.00
H2       0.37300    0.31275    0.60190   1.00
H2       0.31720    0.32273    0.69214   1.00
H2       0.34995    0.29770    0.64272   1.00
C6       0.36327    0.29895    0.72894   1.00
C6       0.31141    0.33202    0.60558   1.00
H2       0.39039    0.30942    0.74208   1.00
H2       0.31213    0.36047    0.59117   1.00
C6       0.34105    0.27440    0.76041   1.00
C6       0.29442    0.30174    0.57589   1.00
H2       0.37233    0.27932    0.70551   1.00
H2       0.29063    0.33527    0.62954   1.00
C6       0.33255    0.29870    0.79765   1.00
C6       0.31901    0.29994    0.53792   1.00
C6       0.30223    0.25779    0.74426   1.00
C6       0.29179    0.26037    0.59393   1.00
C6       0.36722    0.23945    0.77255   1.00
C6       0.25253    0.31469    0.56446   1.00
H2       0.35932    0.31137    0.80942   1.00
H2       0.32196    0.32883    0.52480   1.00
H2       0.31230    0.32245    0.79170   1.00
H2       0.34821    0.28870    0.54346   1.00
H2       0.31951    0.28064    0.82041   1.00
H2       0.30546    0.28081    0.51637   1.00
H2       0.28836    0.23848    0.76545   1.00
H2       0.27736    0.24011    0.57402   1.00
H2       0.28167    0.28117    0.73775   1.00
H2       0.32075    0.24874    0.60006   1.00
H2       0.30729    0.24123    0.71755   1.00
H2       0.27530    0.26096    0.62115   1.00
H2       0.39492    0.24961    0.78458   1.00
H2       0.25279    0.34365    0.55117   1.00
H2       0.35303    0.22153    0.79475   1.00
H2       0.23949    0.29454    0.54351   1.00
H2       0.37360    0.22071    0.74761   1.00
H2       0.23351    0.31576    0.58998   1.00
C4       0.41154    0.91169    0.64525   1.00
C4       0.41001    0.91195    0.68691   1.00
C3       0.43442    0.88425    0.62397   1.00
C3       0.42789    0.88238    0.71004   1.00
C3       0.38958    0.93976    0.62354   1.00
C3       0.38991    0.94270    0.70670   1.00
C2       0.41315    0.90990    0.56095   1.00
C2       0.40858    0.91347    0.77122   1.00
C3       0.43510    0.88320    0.58311   1.00
C3       0.42741    0.88316    0.75091   1.00
C3       0.39089    0.93756    0.58196   1.00
C3       0.39028    0.94254    0.74836   1.00
H1       0.45175    0.86424    0.63737   1.00
H1       0.44161    0.85896    0.69806   1.00
C5       0.36729    0.96913    0.64335   1.00
C5       0.36996    0.97239    0.68498   1.00
H1       0.45207    0.86259    0.56951   1.00
H1       0.44099    0.86105    0.76591   1.00
H1       0.37546    0.95685    0.56552   1.00
H1       0.37654    0.96405    0.76348   1.00
C6       0.34096    0.99597    0.62015   1.00
C6       0.35239    1.00695    0.70619   1.00
H2       0.32522    0.97887    0.59845   1.00
H2       0.37300    1.01725    0.72810   1.00
H2       0.31720    1.00727    0.63786   1.00
H2       0.34995    1.03230    0.68728   1.00
C6       0.36327    1.03105    0.60106   1.00
C6       0.31141    0.99798    0.72442   1.00
H2       0.39039    1.02058    0.58792   1.00
H2       0.31213    0.96953    0.73883   1.00
C6       0.34105    1.05560    0.56959   1.00
C6       0.29442    1.02826    0.75411   1.00
H2       0.37233    1.05068    0.62449   1.00
H2       0.29063    0.99473    0.70046   1.00
C6       0.33255    1.03130    0.53235   1.00
C6       0.31901    1.03006    0.79208   1.00
C6       0.30223    1.07221    0.58574   1.00
C6       0.29179    1.06963    0.73607   1.00
C6       0.36722    1.09055    0.55745   1.00
C6       0.25253    1.01531    0.76554   1.00
H2       0.35932    1.01863    0.52058   1.00
H2       0.32196    1.00117    0.80520   1.00
H2       0.31230    1.00755    0.53830   1.00
H2       0.34821    1.04130    0.78654   1.00
H2       0.31951    1.04936    0.50959   1.00
H2       0.30546    1.04919    0.81363   1.00
H2       0.28836    1.09152    0.56455   1.00
H2       0.27736    1.08989    0.75598   1.00
H2       0.28167    1.04883    0.59225   1.00
H2       0.32075    1.08126    0.72994   1.00
H2       0.30729    1.08877    0.61245   1.00
H2       0.27530    1.06904    0.70885   1.00
H2       0.39492    1.08039    0.54542   1.00
H2       0.25279    0.98635    0.77883   1.00
H2       0.35303    1.10847    0.53525   1.00
H2       0.23949    1.03546    0.78649   1.00
H2       0.37360    1.10929    0.58239   1.00
H2       0.23351    1.01424    0.74002   1.00
C4       0.41169    1.14525    0.41154   1.00
C4       0.41195    1.18691    0.41001   1.00
C3       0.38425    1.12397    0.43442   1.00
C3       0.38238    1.21004    0.42789   1.00
C3       0.43976    1.12354    0.38958   1.00
C3       0.44270    1.20670    0.38991   1.00
C2       0.40990    1.06095    0.41315   1.00
C2       0.41347    1.27122    0.40858   1.00
C3       0.38320    1.08311    0.43510   1.00
C3       0.38316    1.25091    0.42741   1.00
C3       0.43756    1.08196    0.39089   1.00
C3       0.44254    1.24836    0.39028   1.00
H1       0.36424    1.13737    0.45175   1.00
H1       0.35896    1.19806    0.44161   1.00
C5       0.46913    1.14335    0.36729   1.00
C5       0.47239    1.18498    0.36996   1.00
H1       0.36259    1.06951    0.45207   1.00
H1       0.36105    1.26591    0.44099   1.00
H1       0.45685    1.06552    0.37546   1.00
H1       0.46405    1.26348    0.37654   1.00
C6       0.49597    1.12015    0.34096   1.00
C6       0.50695    1.20619    0.35239   1.00
H2       0.47887    1.09845    0.32522   1.00
H2       0.51725    1.22810    0.37300   1.00
H2       0.50727    1.13786    0.31720   1.00
H2       0.53230    1.18728    0.34995   1.00
C6       0.53105    1.10106    0.36327   1.00
C6       0.49798    1.22442    0.31141   1.00
H2       0.52058    1.08792    0.39039   1.00
H2       0.46953    1.23883    0.31213   1.00
C6       0.55560    1.06959    0.34105   1.00
C6       0.52826    1.25411    0.29442   1.00
H2       0.55068    1.12449    0.37233   1.00
H2       0.49473    1.20046    0.29063   1.00
C6       0.53130    1.03235    0.33255   1.00
C6       0.53006    1.29208    0.31901   1.00
C6       0.57221    1.08574    0.30223   1.00
C6       0.56963    1.23607    0.29179   1.00
C6       0.59055    1.05745    0.36722   1.00
C6       0.51531    1.26554    0.25253   1.00
H2       0.51863    1.02058    0.35932   1.00
H2       0.50117    1.30520    0.32196   1.00
H2       0.50755    1.03830    0.31230   1.00
H2       0.54130    1.28654    0.34821   1.00
H2       0.54936    1.00959    0.31951   1.00
H2       0.54919    1.31363    0.30546   1.00
H2       0.59152    1.06455    0.28836   1.00
H2       0.58989    1.25598    0.27736   1.00
H2       0.54883    1.09225    0.28167   1.00
H2       0.58126    1.22994    0.32075   1.00
H2       0.58877    1.11245    0.30729   1.00
H2       0.56904    1.20885    0.27530   1.00
H2       0.58039    1.04542    0.39492   1.00
H2       0.48635    1.27883    0.25279   1.00
H2       0.60847    1.03525    0.35303   1.00
H2       0.53546    1.28649    0.23949   1.00
H2       0.60929    1.08239    0.37360   1.00
H2       0.51424    1.24002    0.23351   1.00
C4       0.18475    0.91154    0.41831   1.00
C4       0.14309    0.91001    0.41805   1.00
C3       0.20603    0.93442    0.44575   1.00
C3       0.11996    0.92789    0.44762   1.00
C3       0.20646    0.88958    0.39024   1.00
C3       0.12330    0.88991    0.38730   1.00
C2       0.26905    0.91315    0.42010   1.00
C2       0.05878    0.90858    0.41653   1.00
C3       0.24689    0.93510    0.44680   1.00
C3       0.07909    0.92741    0.44684   1.00
C3       0.24804    0.89089    0.39244   1.00
C3       0.08164    0.89028    0.38746   1.00
H1       0.19263    0.95175    0.46576   1.00
H1       0.13194    0.94161    0.47104   1.00
C5       0.18665    0.86729    0.36087   1.00
C5       0.14502    0.86996    0.35761   1.00
H1       0.26049    0.95207    0.46741   1.00
H1       0.06409    0.94099    0.46895   1.00
H1       0.26448    0.87546    0.37315   1.00
H1       0.06652    0.87654    0.36595   1.00
C6       0.20985    0.84096    0.33403   1.00
C6       0.12381    0.85239    0.32305   1.00
H2       0.23155    0.82522    0.35113   1.00
H2       0.10190    0.87300    0.31275   1.00
H2       0.19214    0.81720    0.32273   1.00
H2       0.14272    0.84995    0.29770   1.00
C6       0.22894    0.86327    0.29895   1.00
C6       0.10558    0.81141    0.33202   1.00
H2       0.24208    0.89039    0.30942   1.00
H2       0.09117    0.81213    0.36047   1.00
C6       0.26041    0.84105    0.27440   1.00
C6       0.07589    0.79442    0.30174   1.00
H2       0.20551    0.87233    0.27932   1.00
H2       0.12954    0.79063    0.33527   1.00
C6       0.29765    0.83255    0.29870   1.00
C6       0.03792    0.81901    0.29994   1.00
C6       0.24426    0.80223    0.25779   1.00
C6       0.09393    0.79179    0.26037   1.00
C6       0.27255    0.86722    0.23945   1.00
C6       0.06446    0.75253    0.31469   1.00
H2       0.30942    0.85932    0.31137   1.00
H2       0.02480    0.82196    0.32883   1.00
H2       0.29170    0.81230    0.32245   1.00
H2       0.04346    0.84821    0.28870   1.00
H2       0.32041    0.81951    0.28064   1.00
H2       0.01637    0.80546    0.28081   1.00
H2       0.26545    0.78836    0.23848   1.00
H2       0.07402    0.77736    0.24011   1.00
H2       0.23775    0.78167    0.28117   1.00
H2       0.10006    0.82075    0.24874   1.00
H2       0.21755    0.80729    0.24123   1.00
H2       0.12115    0.77530    0.26096   1.00
H2       0.28458    0.89492    0.24961   1.00
H2       0.05117    0.75279    0.34365   1.00
H2       0.29475    0.85303    0.22153   1.00
H2       0.04351    0.73949    0.29454   1.00
H2       0.24761    0.87360    0.22071   1.00
H2       0.08998    0.73351    0.31576   1.00
C4       0.64525    0.91154    0.41169   1.00
C4       0.68691    0.91001    0.41195   1.00
C3       0.62397    0.93442    0.38425   1.00
C3       0.71004    0.92789    0.38238   1.00
C3       0.62354    0.88958    0.43976   1.00
C3       0.70670    0.88991    0.44270   1.00
C2       0.56095    0.91315    0.40990   1.00
C2       0.77122    0.90858    0.41347   1.00
C3       0.58311    0.93510    0.38320   1.00
C3       0.75091    0.92741    0.38316   1.00
C3       0.58196    0.89089    0.43756   1.00
C3       0.74836    0.89028    0.44254   1.00
H1       0.63737    0.95175    0.36424   1.00
H1       0.69806    0.94161    0.35896   1.00
C5       0.64335    0.86729    0.46913   1.00
C5       0.68498    0.86996    0.47239   1.00
H1       0.56951    0.95207    0.36259   1.00
H1       0.76591    0.94099    0.36105   1.00
H1       0.56552    0.87546    0.45685   1.00
H1       0.76348    0.87654    0.46405   1.00
C6       0.62015    0.84096    0.49597   1.00
C6       0.70619    0.85239    0.50695   1.00
H2       0.59845    0.82522    0.47887   1.00
H2       0.72810    0.87300    0.51725   1.00
H2       0.63786    0.81720    0.50727   1.00
H2       0.68728    0.84995    0.53230   1.00
C6       0.60106    0.86327    0.53105   1.00
C6       0.72442    0.81141    0.49798   1.00
H2       0.58792    0.89039    0.52058   1.00
H2       0.73883    0.81213    0.46953   1.00
C6       0.56959    0.84105    0.55560   1.00
C6       0.75411    0.79442    0.52826   1.00
H2       0.62449    0.87233    0.55068   1.00
H2       0.70046    0.79063    0.49473   1.00
C6       0.53235    0.83255    0.53130   1.00
C6       0.79208    0.81901    0.53006   1.00
C6       0.58574    0.80223    0.57221   1.00
C6       0.73607    0.79179    0.56963   1.00
C6       0.55745    0.86722    0.59055   1.00
C6       0.76554    0.75253    0.51531   1.00
H2       0.52058    0.85932    0.51863   1.00
H2       0.80520    0.82196    0.50117   1.00
H2       0.53830    0.81230    0.50755   1.00
H2       0.78654    0.84821    0.54130   1.00
H2       0.50959    0.81951    0.54936   1.00
H2       0.81363    0.80546    0.54919   1.00
H2       0.56455    0.78836    0.59152   1.00
H2       0.75598    0.77736    0.58989   1.00
H2       0.59225    0.78167    0.54883   1.00
H2       0.72994    0.82075    0.58126   1.00
H2       0.61245    0.80729    0.58877   1.00
H2       0.70885    0.77530    0.56904   1.00
H2       0.54542    0.89492    0.58039   1.00
H2       0.77883    0.75279    0.48635   1.00
H2       0.53525    0.85303    0.60847   1.00
H2       0.78649    0.73949    0.53546   1.00
H2       0.58239    0.87360    0.60929   1.00
H2       0.74002    0.73351    0.51424   1.00
C4       0.41831    0.68475    0.41154   1.00
C4       0.41805    0.64309    0.41001   1.00
C3       0.44575    0.70603    0.43442   1.00
C3       0.44762    0.61996    0.42789   1.00
C3       0.39024    0.70646    0.38958   1.00
C3       0.38730    0.62330    0.38991   1.00
C2       0.42010    0.76905    0.41315   1.00
C2       0.41653    0.55878    0.40858   1.00
C3       0.44680    0.74689    0.43510   1.00
C3       0.44684    0.57909    0.42741   1.00
C3       0.39244    0.74804    0.39089   1.00
C3       0.38746    0.58164    0.39028   1.00
H1       0.46576    0.69263    0.45175   1.00
H1       0.47104    0.63194    0.44161   1.00
C5       0.36087    0.68665    0.36729   1.00
C5       0.35761    0.64502    0.36996   1.00
H1       0.46741    0.76049    0.45207   1.00
H1       0.46895    0.56409    0.44099   1.00
H1       0.37315    0.76448    0.37546   1.00
H1       0.36595    0.56652    0.37654   1.00
C6       0.33403    0.70985    0.34096   1.00
C6       0.32305    0.62381    0.35239   1.00
H2       0.35113    0.73155    0.32522   1.00
H2       0.31275    0.60190    0.37300   1.00
H2       0.32273    0.69214    0.31720   1.00
H2       0.29770    0.64272    0.34995   1.00
C6       0.29895    0.72894    0.36327   1.00
C6       0.33202    0.60558    0.31141   1.00
H2       0.30942    0.74208    0.39039   1.00
H2       0.36047    0.59117    0.31213   1.00
C6       0.27440    0.76041    0.34105   1.00
C6       0.30174    0.57589    0.29442   1.00
H2       0.27932    0.70551    0.37233   1.00
H2       0.33527    0.62954    0.29063   1.00
C6       0.29870    0.79765    0.33255   1.00
C6       0.29994    0.53792    0.31901   1.00
C6       0.25779    0.74426    0.30223   1.00
C6       0.26037    0.59393    0.29179   1.00
C6       0.23945    0.77255    0.36722   1.00
C6       0.31469    0.56446    0.25253   1.00
H2       0.31137    0.80942    0.35932   1.00
H2       0.32883    0.52480    0.32196   1.00
H2       0.32245    0.79170    0.31230   1.00
H2       0.28870    0.54346    0.34821   1.00
H2       0.28064    0.82041    0.31951   1.00
H2       0.28081    0.51637    0.30546   1.00
H2       0.23848    0.76545    0.28836   1.00
H2       0.24011    0.57402    0.27736   1.00
H2       0.28117    0.73775    0.28167   1.00
H2       0.24874    0.60006    0.32075   1.00
H2       0.24123    0.71755    0.30729   1.00
H2       0.26096    0.62115    0.27530   1.00
H2       0.24961    0.78458    0.39492   1.00
H2       0.34365    0.55117    0.25279   1.00
H2       0.22153    0.79475    0.35303   1.00
H2       0.29454    0.54351    0.23949   1.00
H2       0.22071    0.74761    0.37360   1.00
H2       0.31576    0.58998    0.23351   1.00
C4       0.41154    0.91831    0.18475   1.00
C4       0.41001    0.91805    0.14309   1.00
C3       0.43442    0.94575    0.20603   1.00
C3       0.42789    0.94762    0.11996   1.00
C3       0.38958    0.89024    0.20646   1.00
C3       0.38991    0.88730    0.12330   1.00
C2       0.41315    0.92010    0.26905   1.00
C2       0.40858    0.91653    0.05878   1.00
C3       0.43510    0.94680    0.24689   1.00
C3       0.42741    0.94684    0.07909   1.00
C3       0.39089    0.89244    0.24804   1.00
C3       0.39028    0.88746    0.08164   1.00
H1       0.45175    0.96576    0.19263   1.00
H1       0.44161    0.97104    0.13194   1.00
C5       0.36729    0.86087    0.18665   1.00
C5       0.36996    0.85761    0.14502   1.00
H1       0.45207    0.96741    0.26049   1.00
H1       0.44099    0.96895    0.06409   1.00
H1       0.37546    0.87315    0.26448   1.00
H1       0.37654    0.86595    0.06652   1.00
C6       0.34096    0.83403    0.20985   1.00
C6       0.35239    0.82305    0.12381   1.00
H2       0.32522    0.85113    0.23155   1.00
H2       0.37300    0.81275    0.10190   1.00
H2       0.31720    0.82273    0.19214   1.00
H2       0.34995    0.79770    0.14272   1.00
C6       0.36327    0.79895    0.22894   1.00
C6       0.31141    0.83202    0.10558   1.00
H2       0.39039    0.80942    0.24208   1.00
H2       0.31213    0.86047    0.09117   1.00
C6       0.34105    0.77440    0.26041   1.00
C6       0.29442    0.80174    0.07589   1.00
H2       0.37233    0.77932    0.20551   1.00
H2       0.29063    0.83527    0.12954   1.00
C6       0.33255    0.79870    0.29765   1.00
C6       0.31901    0.79994    0.03792   1.00
C6       0.30223    0.75779    0.24426   1.00
C6       0.29179    0.76037    0.09393   1.00
C6       0.36722    0.73945    0.27255   1.00
C6       0.25253    0.81469    0.06446   1.00
H2       0.35932    0.81137    0.30942   1.00
H2       0.32196    0.82883    0.02480   1.00
H2       0.31230    0.82245    0.29170   1.00
H2       0.34821    0.78870    0.04346   1.00
H2       0.31951    0.78064    0.32041   1.00
H2       0.30546    0.78081    0.01637   1.00
H2       0.28836    0.73848    0.26545   1.00
H2       0.27736    0.74011    0.07402   1.00
H2       0.28167    0.78117    0.23775   1.00
H2       0.32075    0.74874    0.10006   1.00
H2       0.30729    0.74123    0.21755   1.00
H2       0.27530    0.76096    0.12115   1.00
H2       0.39492    0.74961    0.28458   1.00
H2       0.25279    0.84365    0.05117   1.00
H2       0.35303    0.72153    0.29475   1.00
H2       0.23949    0.79454    0.04351   1.00
H2       0.37360    0.72071    0.24761   1.00
H2       0.23351    0.81576    0.08998   1.00
C4       0.91154    0.41169    0.64525   1.00
C4       0.91001    0.41195    0.68691   1.00
C3       0.93442    0.38425    0.62397   1.00
C3       0.92789    0.38238    0.71004   1.00
C3       0.88958    0.43976    0.62354   1.00
C3       0.88991    0.44270    0.70670   1.00
C2       0.91315    0.40990    0.56095   1.00
C2       0.90858    0.41347    0.77122   1.00
C3       0.93510    0.38320    0.58311   1.00
C3       0.92741    0.38316    0.75091   1.00
C3       0.89089    0.43756    0.58196   1.00
C3       0.89028    0.44254    0.74836   1.00
H1       0.95175    0.36424    0.63737   1.00
H1       0.94161    0.35896    0.69806   1.00
C5       0.86729    0.46913    0.64335   1.00
C5       0.86996    0.47239    0.68498   1.00
H1       0.95207    0.36259    0.56951   1.00
H1       0.94099    0.36105    0.76591   1.00
H1       0.87546    0.45685    0.56552   1.00
H1       0.87654    0.46405    0.76348   1.00
C6       0.84096    0.49597    0.62015   1.00
C6       0.85239    0.50695    0.70619   1.00
H2       0.82522    0.47887    0.59845   1.00
H2       0.87300    0.51725    0.72810   1.00
H2       0.81720    0.50727    0.63786   1.00
H2       0.84995    0.53230    0.68728   1.00
C6       0.86327    0.53105    0.60106   1.00
C6       0.81141    0.49798    0.72442   1.00
H2       0.89039    0.52058    0.58792   1.00
H2       0.81213    0.46953    0.73883   1.00
C6       0.84105    0.55560    0.56959   1.00
C6       0.79442    0.52826    0.75411   1.00
H2       0.87233    0.55068    0.62449   1.00
H2       0.79063    0.49473    0.70046   1.00
C6       0.83255    0.53130    0.53235   1.00
C6       0.81901    0.53006    0.79208   1.00
C6       0.80223    0.57221    0.58574   1.00
C6       0.79179    0.56963    0.73607   1.00
C6       0.86722    0.59055    0.55745   1.00
C6       0.75253    0.51531    0.76554   1.00
H2       0.85932    0.51863    0.52058   1.00
H2       0.82196    0.50117    0.80520   1.00
H2       0.81230    0.50755    0.53830   1.00
H2       0.84821    0.54130    0.78654   1.00
H2       0.81951    0.54936    0.50959   1.00
H2       0.80546    0.54919    0.81363   1.00
H2       0.78836    0.59152    0.56455   1.00
H2       0.77736    0.58989    0.75598   1.00
H2       0.78167    0.54883    0.59225   1.00
H2       0.82075    0.58126    0.72994   1.00
H2       0.80729    0.58877    0.61245   1.00
H2       0.77530    0.56904    0.70885   1.00
H2       0.89492    0.58039    0.54542   1.00
H2       0.75279    0.48635    0.77883   1.00
H2       0.85303    0.60847    0.53525   1.00
H2       0.73949    0.53546    0.78649   1.00
H2       0.87360    0.60929    0.58239   1.00
H2       0.73351    0.51424    0.74002   1.00
C4       0.91169    0.64525    0.41154   1.00
C4       0.91195    0.68691    0.41001   1.00
C3       0.88425    0.62397    0.43442   1.00
C3       0.88238    0.71004    0.42789   1.00
C3       0.93976    0.62354    0.38958   1.00
C3       0.94270    0.70670    0.38991   1.00
C2       0.90990    0.56095    0.41315   1.00
C2       0.91347    0.77122    0.40858   1.00
C3       0.88320    0.58311    0.43510   1.00
C3       0.88316    0.75091    0.42741   1.00
C3       0.93756    0.58196    0.39089   1.00
C3       0.94254    0.74836    0.39028   1.00
H1       0.86424    0.63737    0.45175   1.00
H1       0.85896    0.69806    0.44161   1.00
C5       0.96913    0.64335    0.36729   1.00
C5       0.97239    0.68498    0.36996   1.00
H1       0.86259    0.56951    0.45207   1.00
H1       0.86105    0.76591    0.44099   1.00
H1       0.95685    0.56552    0.37546   1.00
H1       0.96405    0.76348    0.37654   1.00
C6       0.99597    0.62015    0.34096   1.00
C6       1.00695    0.70619    0.35239   1.00
H2       0.97887    0.59845    0.32522   1.00
H2       1.01725    0.72810    0.37300   1.00
H2       1.00727    0.63786    0.31720   1.00
H2       1.03230    0.68728    0.34995   1.00
C6       1.03105    0.60106    0.36327   1.00
C6       0.99798    0.72442    0.31141   1.00
H2       1.02058    0.58792    0.39039   1.00
H2       0.96953    0.73883    0.31213   1.00
C6       1.05560    0.56959    0.34105   1.00
C6       1.02826    0.75411    0.29442   1.00
H2       1.05068    0.62449    0.37233   1.00
H2       0.99473    0.70046    0.29063   1.00
C6       1.03130    0.53235    0.33255   1.00
C6       1.03006    0.79208    0.31901   1.00
C6       1.07221    0.58574    0.30223   1.00
C6       1.06963    0.73607    0.29179   1.00
C6       1.09055    0.55745    0.36722   1.00
C6       1.01531    0.76554    0.25253   1.00
H2       1.01863    0.52058    0.35932   1.00
H2       1.00117    0.80520    0.32196   1.00
H2       1.00755    0.53830    0.31230   1.00
H2       1.04130    0.78654    0.34821   1.00
H2       1.04936    0.50959    0.31951   1.00
H2       1.04919    0.81363    0.30546   1.00
H2       1.09152    0.56455    0.28836   1.00
H2       1.08989    0.75598    0.27736   1.00
H2       1.04883    0.59225    0.28167   1.00
H2       1.08126    0.72994    0.32075   1.00
H2       1.08877    0.61245    0.30729   1.00
H2       1.06904    0.70885    0.27530   1.00
H2       1.08039    0.54542    0.39492   1.00
H2       0.98635    0.77883    0.25279   1.00
H2       1.10847    0.53525    0.35303   1.00
H2       1.03546    0.78649    0.23949   1.00
H2       1.10929    0.58239    0.37360   1.00
H2       1.01424    0.74002    0.23351   1.00
C4       0.68475    0.41154    0.41831   1.00
C4       0.64309    0.41001    0.41805   1.00
C3       0.70603    0.43442    0.44575   1.00
C3       0.61996    0.42789    0.44762   1.00
C3       0.70646    0.38958    0.39024   1.00
C3       0.62330    0.38991    0.38730   1.00
C2       0.76905    0.41315    0.42010   1.00
C2       0.55878    0.40858    0.41653   1.00
C3       0.74689    0.43510    0.44680   1.00
C3       0.57909    0.42741    0.44684   1.00
C3       0.74804    0.39089    0.39244   1.00
C3       0.58164    0.39028    0.38746   1.00
H1       0.69263    0.45175    0.46576   1.00
H1       0.63194    0.44161    0.47104   1.00
C5       0.68665    0.36729    0.36087   1.00
C5       0.64502    0.36996    0.35761   1.00
H1       0.76049    0.45207    0.46741   1.00
H1       0.56409    0.44099    0.46895   1.00
H1       0.76448    0.37546    0.37315   1.00
H1       0.56652    0.37654    0.36595   1.00
C6       0.70985    0.34096    0.33403   1.00
C6       0.62381    0.35239    0.32305   1.00
H2       0.73155    0.32522    0.35113   1.00
H2       0.60190    0.37300    0.31275   1.00
H2       0.69214    0.31720    0.32273   1.00
H2       0.64272    0.34995    0.29770   1.00
C6       0.72894    0.36327    0.29895   1.00
C6       0.60558    0.31141    0.33202   1.00
H2       0.74208    0.39039    0.30942   1.00
H2       0.59117    0.31213    0.36047   1.00
C6       0.76041    0.34105    0.27440   1.00
C6       0.57589    0.29442    0.30174   1.00
H2       0.70551    0.37233    0.27932   1.00
H2       0.62954    0.29063    0.33527   1.00
C6       0.79765    0.33255    0.29870   1.00
C6       0.53792    0.31901    0.29994   1.00
C6       0.74426    0.30223    0.25779   1.00
C6       0.59393    0.29179    0.26037   1.00
C6       0.77255    0.36722    0.23945   1.00
C6       0.56446    0.25253    0.31469   1.00
H2       0.80942    0.35932    0.31137   1.00
H2       0.52480    0.32196    0.32883   1.00
H2       0.79170    0.31230    0.32245   1.00
H2       0.54346    0.34821    0.28870   1.00
H2       0.82041    0.31951    0.28064   1.00
H2       0.51637    0.30546    0.28081   1.00
H2       0.76545    0.28836    0.23848   1.00
H2       0.57402    0.27736    0.24011   1.00
H2       0.73775    0.28167    0.28117   1.00
H2       0.60006    0.32075    0.24874   1.00
H2       0.71755    0.30729    0.24123   1.00
H2       0.62115    0.27530    0.26096   1.00
H2       0.78458    0.39492    0.24961   1.00
H2       0.55117    0.25279    0.34365   1.00
H2       0.79475    0.35303    0.22153   1.00
H2       0.54351    0.23949    0.29454   1.00
H2       0.74761    0.37360    0.22071   1.00
H2       0.58998    0.23351    0.31576   1.00
C4       1.14525    0.41154    0.41169   1.00
C4       1.18691    0.41001    0.41195   1.00
C3       1.12397    0.43442    0.38425   1.00
C3       1.21004    0.42789    0.38238   1.00
C3       1.12354    0.38958    0.43976   1.00
C3       1.20670    0.38991    0.44270   1.00
C2       1.06095    0.41315    0.40990   1.00
C2       1.27122    0.40858    0.41347   1.00
C3       1.08311    0.43510    0.38320   1.00
C3       1.25091    0.42741    0.38316   1.00
C3       1.08196    0.39089    0.43756   1.00
C3       1.24836    0.39028    0.44254   1.00
H1       1.13737    0.45175    0.36424   1.00
H1       1.19806    0.44161    0.35896   1.00
C5       1.14335    0.36729    0.46913   1.00
C5       1.18498    0.36996    0.47239   1.00
H1       1.06951    0.45207    0.36259   1.00
H1       1.26591    0.44099    0.36105   1.00
H1       1.06552    0.37546    0.45685   1.00
H1       1.26348    0.37654    0.46405   1.00
C6       1.12015    0.34096    0.49597   1.00
C6       1.20619    0.35239    0.50695   1.00
H2       1.09845    0.32522    0.47887   1.00
H2       1.22810    0.37300    0.51725   1.00
H2       1.13786    0.31720    0.50727   1.00
H2       1.18728    0.34995    0.53230   1.00
C6       1.10106    0.36327    0.53105   1.00
C6       1.22442    0.31141    0.49798   1.00
H2       1.08792    0.39039    0.52058   1.00
H2       1.23883    0.31213    0.46953   1.00
C6       1.06959    0.34105    0.55560   1.00
C6       1.25411    0.29442    0.52826   1.00
H2       1.12449    0.37233    0.55068   1.00
H2       1.20046    0.29063    0.49473   1.00
C6       1.03235    0.33255    0.53130   1.00
C6       1.29208    0.31901    0.53006   1.00
C6       1.08574    0.30223    0.57221   1.00
C6       1.23607    0.29179    0.56963   1.00
C6       1.05745    0.36722    0.59055   1.00
C6       1.26554    0.25253    0.51531   1.00
H2       1.02058    0.35932    0.51863   1.00
H2       1.30520    0.32196    0.50117   1.00
H2       1.03830    0.31230    0.50755   1.00
H2       1.28654    0.34821    0.54130   1.00
H2       1.00959    0.31951    0.54936   1.00
H2       1.31363    0.30546    0.54919   1.00
H2       1.06455    0.28836    0.59152   1.00
H2       1.25598    0.27736    0.58989   1.00
H2       1.09225    0.28167    0.54883   1.00
H2       1.22994    0.32075    0.58126   1.00
H2       1.11245    0.30729    0.58877   1.00
H2       1.20885    0.27530    0.56904   1.00
H2       1.04542    0.39492    0.58039   1.00
H2       1.27883    0.25279    0.48635   1.00
H2       1.03525    0.35303    0.60847   1.00
H2       1.28649    0.23949    0.53546   1.00
H2       1.08239    0.37360    0.60929   1.00
H2       1.24002    0.23351    0.51424   1.00
C4       0.91831    0.18475    0.41154   1.00
C4       0.91805    0.14309    0.41001   1.00
C3       0.94575    0.20603    0.43442   1.00
C3       0.94762    0.11996    0.42789   1.00
C3       0.89024    0.20646    0.38958   1.00
C3       0.88730    0.12330    0.38991   1.00
C2       0.92010    0.26905    0.41315   1.00
C2       0.91653    0.05878    0.40858   1.00
C3       0.94680    0.24689    0.43510   1.00
C3       0.94684    0.07909    0.42741   1.00
C3       0.89244    0.24804    0.39089   1.00
C3       0.88746    0.08164    0.39028   1.00
H1       0.96576    0.19263    0.45175   1.00
H1       0.97104    0.13194    0.44161   1.00
C5       0.86087    0.18665    0.36729   1.00
C5       0.85761    0.14502    0.36996   1.00
H1       0.96741    0.26049    0.45207   1.00
H1       0.96895    0.06409    0.44099   1.00
H1       0.87315    0.26448    0.37546   1.00
H1       0.86595    0.06652    0.37654   1.00
C6       0.83403    0.20985    0.34096   1.00
C6       0.82305    0.12381    0.35239   1.00
H2       0.85113    0.23155    0.32522   1.00
H2       0.81275    0.10190    0.37300   1.00
H2       0.82273    0.19214    0.31720   1.00
H2       0.79770    0.14272    0.34995   1.00
C6       0.79895    0.22894    0.36327   1.00
C6       0.83202    0.10558    0.31141   1.00
H2       0.80942    0.24208    0.39039   1.00
H2       0.86047    0.09117    0.31213   1.00
C6       0.77440    0.26041    0.34105   1.00
C6       0.80174    0.07589    0.29442   1.00
H2       0.77932    0.20551    0.37233   1.00
H2       0.83527    0.12954    0.29063   1.00
C6       0.79870    0.29765    0.33255   1.00
C6       0.79994    0.03792    0.31901   1.00
C6       0.75779    0.24426    0.30223   1.00
C6       0.76037    0.09393    0.29179   1.00
C6       0.73945    0.27255    0.36722   1.00
C6       0.81469    0.06446    0.25253   1.00
H2       0.81137    0.30942    0.35932   1.00
H2       0.82883    0.02480    0.32196   1.00
H2       0.82245    0.29170    0.31230   1.00
H2       0.78870    0.04346    0.34821   1.00
H2       0.78064    0.32041    0.31951   1.00
H2       0.78081    0.01637    0.30546   1.00
H2       0.73848    0.26545    0.28836   1.00
H2       0.74011    0.07402    0.27736   1.00
H2       0.78117    0.23775    0.28167   1.00
H2       0.74874    0.10006    0.32075   1.00
H2       0.74123    0.21755    0.30729   1.00
H2       0.76096    0.12115    0.27530   1.00
H2       0.74961    0.28458    0.39492   1.00
H2       0.84365    0.05117    0.25279   1.00
H2       0.72153    0.29475    0.35303   1.00
H2       0.79454    0.04351    0.23949   1.00
H2       0.72071    0.24761    0.37360   1.00
H2       0.81576    0.08998    0.23351   1.00
C4       0.91154    0.41831    0.18475   1.00
C4       0.91001    0.41805    0.14309   1.00
C3       0.93442    0.44575    0.20603   1.00
C3       0.92789    0.44762    0.11996   1.00
C3       0.88958    0.39024    0.20646   1.00
C3       0.88991    0.38730    0.12330   1.00
C2       0.91315    0.42010    0.26905   1.00
C2       0.90858    0.41653    0.05878   1.00
C3       0.93510    0.44680    0.24689   1.00
C3       0.92741    0.44684    0.07909   1.00
C3       0.89089    0.39244    0.24804   1.00
C3       0.89028    0.38746    0.08164   1.00
H1       0.95175    0.46576    0.19263   1.00
H1       0.94161    0.47104    0.13194   1.00
C5       0.86729    0.36087    0.18665   1.00
C5       0.86996    0.35761    0.14502   1.00
H1       0.95207    0.46741    0.26049   1.00
H1       0.94099    0.46895    0.06409   1.00
H1       0.87546    0.37315    0.26448   1.00
H1       0.87654    0.36595    0.06652   1.00
C6       0.84096    0.33403    0.20985   1.00
C6       0.85239    0.32305    0.12381   1.00
H2       0.82522    0.35113    0.23155   1.00
H2       0.87300    0.31275    0.10190   1.00
H2       0.81720    0.32273    0.19214   1.00
H2       0.84995    0.29770    0.14272   1.00
C6       0.86327    0.29895    0.22894   1.00
C6       0.81141    0.33202    0.10558   1.00
H2       0.89039    0.30942    0.24208   1.00
H2       0.81213    0.36047    0.09117   1.00
C6       0.84105    0.27440    0.26041   1.00
C6       0.79442    0.30174    0.07589   1.00
H2       0.87233    0.27932    0.20551   1.00
H2       0.79063    0.33527    0.12954   1.00
C6       0.83255    0.29870    0.29765   1.00
C6       0.81901    0.29994    0.03792   1.00
C6       0.80223    0.25779    0.24426   1.00
C6       0.79179    0.26037    0.09393   1.00
C6       0.86722    0.23945    0.27255   1.00
C6       0.75253    0.31469    0.06446   1.00
H2       0.85932    0.31137    0.30942   1.00
H2       0.82196    0.32883    0.02480   1.00
H2       0.81230    0.32245    0.29170   1.00
H2       0.84821    0.28870    0.04346   1.00
H2       0.81951    0.28064    0.32041   1.00
H2       0.80546    0.28081    0.01637   1.00
H2       0.78836    0.23848    0.26545   1.00
H2       0.77736    0.24011    0.07402   1.00
H2       0.78167    0.28117    0.23775   1.00
H2       0.82075    0.24874    0.10006   1.00
H2       0.80729    0.24123    0.21755   1.00
H2       0.77530    0.26096    0.12115   1.00
H2       0.89492    0.24961    0.28458   1.00
H2       0.75279    0.34365    0.05117   1.00
H2       0.85303    0.22153    0.29475   1.00
H2       0.73949    0.29454    0.04351   1.00
H2       0.87360    0.22071    0.24761   1.00
H2       0.73351    0.31576    0.08998   1.00
