data_IRMOF10_SG202_interpen_Ligand3cp_label_t.

_audit_creation_method             'generated by an auxiliary program of Tobunporous'

_symmetry_space_group_name_H-M     'P 1'
_symmetry_Int_Tables_number        1
_symmetry_cell_setting             triclinic

_cell_length_a                    34.2800
_cell_length_b                    34.2800
_cell_length_c                    34.2800
_cell_angle_alpha                 90.0000
_cell_angle_beta                  90.0000
_cell_angle_gamma                 90.0000

loop_
_atom_site_label
_atom_site_fract_x
_atom_site_fract_y
_atom_site_fract_z
_atom_site_occupancy
O1       0.75000    0.75000    0.75000   1.00
Zn1      0.71720    0.78280    0.78280   1.00
Zn1      0.78280    0.71720    0.78280   1.00
Zn1      0.78280    0.78280    0.71720   1.00
Zn1      0.71720    0.71720    0.71720   1.00
O2       0.72650    0.77350    0.83820   1.00
O2       0.72650    0.83820    0.77350   1.00
O2       0.66180    0.77350    0.77350   1.00
O2       0.77350    0.72650    0.83820   1.00
O2       0.83820    0.72650    0.77350   1.00
O2       0.77350    0.66180    0.77350   1.00
O2       0.77350    0.83820    0.72650   1.00
O2       0.83820    0.77350    0.72650   1.00
O2       0.77350    0.77350    0.66180   1.00
O2       0.66180    0.72650    0.72650   1.00
O2       0.72650    0.66180    0.72650   1.00
O2       0.72650    0.72650    0.66180   1.00
C1       0.75000    0.75000    0.85520   1.00
C1       0.75000    0.85520    0.75000   1.00
C1       0.64480    0.75000    0.75000   1.00
C1       0.85520    0.75000    0.75000   1.00
C1       0.75000    0.64480    0.75000   1.00
C1       0.75000    0.75000    0.64480   1.00
O1       0.25000    0.25000    0.75000   1.00
Zn1      0.21720    0.28280    0.78280   1.00
Zn1      0.28280    0.21720    0.78280   1.00
Zn1      0.28280    0.28280    0.71720   1.00
Zn1      0.21720    0.21720    0.71720   1.00
O2       0.22650    0.27350    0.83820   1.00
O2       0.22650    0.33820    0.77350   1.00
O2       0.16180    0.27350    0.77350   1.00
O2       0.27350    0.22650    0.83820   1.00
O2       0.33820    0.22650    0.77350   1.00
O2       0.27350    0.16180    0.77350   1.00
O2       0.27350    0.33820    0.72650   1.00
O2       0.33820    0.27350    0.72650   1.00
O2       0.27350    0.27350    0.66180   1.00
O2       0.16180    0.22650    0.72650   1.00
O2       0.22650    0.16180    0.72650   1.00
O2       0.22650    0.22650    0.66180   1.00
C1       0.25000    0.25000    0.85520   1.00
C1       0.25000    0.35520    0.75000   1.00
C1       0.14480    0.25000    0.75000   1.00
C1       0.35520    0.25000    0.75000   1.00
C1       0.25000    0.14480    0.75000   1.00
C1       0.25000    0.25000    0.64480   1.00
O1       0.25000    0.75000    0.25000   1.00
Zn1      0.21720    0.78280    0.28280   1.00
Zn1      0.28280    0.71720    0.28280   1.00
Zn1      0.28280    0.78280    0.21720   1.00
Zn1      0.21720    0.71720    0.21720   1.00
O2       0.22650    0.77350    0.33820   1.00
O2       0.22650    0.83820    0.27350   1.00
O2       0.16180    0.77350    0.27350   1.00
O2       0.27350    0.72650    0.33820   1.00
O2       0.33820    0.72650    0.27350   1.00
O2       0.27350    0.66180    0.27350   1.00
O2       0.27350    0.83820    0.22650   1.00
O2       0.33820    0.77350    0.22650   1.00
O2       0.27350    0.77350    0.16180   1.00
O2       0.16180    0.72650    0.22650   1.00
O2       0.22650    0.66180    0.22650   1.00
O2       0.22650    0.72650    0.16180   1.00
C1       0.25000    0.75000    0.35520   1.00
C1       0.25000    0.85520    0.25000   1.00
C1       0.14480    0.75000    0.25000   1.00
C1       0.35520    0.75000    0.25000   1.00
C1       0.25000    0.64480    0.25000   1.00
C1       0.25000    0.75000    0.14480   1.00
O1       0.75000    0.25000    0.25000   1.00
Zn1      0.71720    0.28280    0.28280   1.00
Zn1      0.78280    0.21720    0.28280   1.00
Zn1      0.78280    0.28280    0.21720   1.00
Zn1      0.71720    0.21720    0.21720   1.00
O2       0.72650    0.27350    0.33820   1.00
O2       0.72650    0.33820    0.27350   1.00
O2       0.66180    0.27350    0.27350   1.00
O2       0.77350    0.22650    0.33820   1.00
O2       0.83820    0.22650    0.27350   1.00
O2       0.77350    0.16180    0.27350   1.00
O2       0.77350    0.33820    0.22650   1.00
O2       0.83820    0.27350    0.22650   1.00
O2       0.77350    0.27350    0.16180   1.00
O2       0.66180    0.22650    0.22650   1.00
O2       0.72650    0.16180    0.22650   1.00
O2       0.72650    0.22650    0.16180   1.00
C1       0.75000    0.25000    0.35520   1.00
C1       0.75000    0.35520    0.25000   1.00
C1       0.64480    0.25000    0.25000   1.00
C1       0.85520    0.25000    0.25000   1.00
C1       0.75000    0.14480    0.25000   1.00
C1       0.75000    0.25000    0.14480   1.00
O1       0.25000    0.25000    0.25000   1.00
Zn1      0.28280    0.21720    0.21720   1.00
Zn1      0.21720    0.28280    0.21720   1.00
Zn1      0.21720    0.21720    0.28280   1.00
Zn1      0.28280    0.28280    0.28280   1.00
O2       0.27350    0.22650    0.16180   1.00
O2       0.27350    0.16180    0.22650   1.00
O2       0.33820    0.22650    0.22650   1.00
O2       0.22650    0.27350    0.16180   1.00
O2       0.16180    0.27350    0.22650   1.00
O2       0.22650    0.33820    0.22650   1.00
O2       0.22650    0.16180    0.27350   1.00
O2       0.16180    0.22650    0.27350   1.00
O2       0.22650    0.22650    0.33820   1.00
O2       0.33820    0.27350    0.27350   1.00
O2       0.27350    0.33820    0.27350   1.00
O2       0.27350    0.27350    0.33820   1.00
C1       0.25000    0.25000    0.14480   1.00
C1       0.25000    0.14480    0.25000   1.00
C1       0.35520    0.25000    0.25000   1.00
C1       0.14480    0.25000    0.25000   1.00
C1       0.25000    0.35520    0.25000   1.00
C1       0.25000    0.25000    0.35520   1.00
O1       0.75000    0.75000    0.25000   1.00
Zn1      0.78280    0.71720    0.21720   1.00
Zn1      0.71720    0.78280    0.21720   1.00
Zn1      0.71720    0.71720    0.28280   1.00
Zn1      0.78280    0.78280    0.28280   1.00
O2       0.77350    0.72650    0.16180   1.00
O2       0.77350    0.66180    0.22650   1.00
O2       0.83820    0.72650    0.22650   1.00
O2       0.72650    0.77350    0.16180   1.00
O2       0.66180    0.77350    0.22650   1.00
O2       0.72650    0.83820    0.22650   1.00
O2       0.72650    0.66180    0.27350   1.00
O2       0.66180    0.72650    0.27350   1.00
O2       0.72650    0.72650    0.33820   1.00
O2       0.83820    0.77350    0.27350   1.00
O2       0.77350    0.83820    0.27350   1.00
O2       0.77350    0.77350    0.33820   1.00
C1       0.75000    0.75000    0.14480   1.00
C1       0.75000    0.64480    0.25000   1.00
C1       0.85520    0.75000    0.25000   1.00
C1       0.64480    0.75000    0.25000   1.00
C1       0.75000    0.85520    0.25000   1.00
C1       0.75000    0.75000    0.35520   1.00
O1       0.75000    0.25000    0.75000   1.00
Zn1      0.78280    0.21720    0.71720   1.00
Zn1      0.71720    0.28280    0.71720   1.00
Zn1      0.71720    0.21720    0.78280   1.00
Zn1      0.78280    0.28280    0.78280   1.00
O2       0.77350    0.22650    0.66180   1.00
O2       0.77350    0.16180    0.72650   1.00
O2       0.83820    0.22650    0.72650   1.00
O2       0.72650    0.27350    0.66180   1.00
O2       0.66180    0.27350    0.72650   1.00
O2       0.72650    0.33820    0.72650   1.00
O2       0.72650    0.16180    0.77350   1.00
O2       0.66180    0.22650    0.77350   1.00
O2       0.72650    0.22650    0.83820   1.00
O2       0.83820    0.27350    0.77350   1.00
O2       0.77350    0.33820    0.77350   1.00
O2       0.77350    0.27350    0.83820   1.00
C1       0.75000    0.25000    0.64480   1.00
C1       0.75000    0.14480    0.75000   1.00
C1       0.85520    0.25000    0.75000   1.00
C1       0.64480    0.25000    0.75000   1.00
C1       0.75000    0.35520    0.75000   1.00
C1       0.75000    0.25000    0.85520   1.00
O1       0.25000    0.75000    0.75000   1.00
Zn1      0.28280    0.71720    0.71720   1.00
Zn1      0.21720    0.78280    0.71720   1.00
Zn1      0.21720    0.71720    0.78280   1.00
Zn1      0.28280    0.78280    0.78280   1.00
O2       0.27350    0.72650    0.66180   1.00
O2       0.27350    0.66180    0.72650   1.00
O2       0.33820    0.72650    0.72650   1.00
O2       0.22650    0.77350    0.66180   1.00
O2       0.16180    0.77350    0.72650   1.00
O2       0.22650    0.83820    0.72650   1.00
O2       0.22650    0.66180    0.77350   1.00
O2       0.16180    0.72650    0.77350   1.00
O2       0.22650    0.72650    0.83820   1.00
O2       0.33820    0.77350    0.77350   1.00
O2       0.27350    0.83820    0.77350   1.00
O2       0.27350    0.77350    0.83820   1.00
C1       0.25000    0.75000    0.64480   1.00
C1       0.25000    0.64480    0.75000   1.00
C1       0.35520    0.75000    0.75000   1.00
C1       0.14480    0.75000    0.75000   1.00
C1       0.25000    0.85520    0.75000   1.00
C1       0.25000    0.75000    0.85520   1.00
O1       0.91500    0.91500    0.91500   1.00
Zn1      0.88220    0.94780    0.94780   1.00
Zn1      0.94780    0.88220    0.94780   1.00
Zn1      0.94780    0.94780    0.88220   1.00
Zn1      0.88220    0.88220    0.88220   1.00
O2       0.89150    0.93850    1.00320   1.00
O2       0.89150    1.00320    0.93850   1.00
O2       0.82680    0.93850    0.93850   1.00
O2       0.93850    0.89150    1.00320   1.00
O2       1.00320    0.89150    0.93850   1.00
O2       0.93850    0.82680    0.93850   1.00
O2       0.93850    1.00320    0.89150   1.00
O2       1.00320    0.93850    0.89150   1.00
O2       0.93850    0.93850    0.82680   1.00
O2       0.82680    0.89150    0.89150   1.00
O2       0.89150    0.82680    0.89150   1.00
O2       0.89150    0.89150    0.82680   1.00
C1       0.91500    0.91500    1.02020   1.00
C1       0.91500    1.02020    0.91500   1.00
C1       0.80980    0.91500    0.91500   1.00
C1       1.02020    0.91500    0.91500   1.00
C1       0.91500    0.80980    0.91500   1.00
C1       0.91500    0.91500    0.80980   1.00
O1       0.41500    0.41500    0.91500   1.00
Zn1      0.38220    0.44780    0.94780   1.00
Zn1      0.44780    0.38220    0.94780   1.00
Zn1      0.44780    0.44780    0.88220   1.00
Zn1      0.38220    0.38220    0.88220   1.00
O2       0.39150    0.43850    1.00320   1.00
O2       0.39150    0.50320    0.93850   1.00
O2       0.32680    0.43850    0.93850   1.00
O2       0.43850    0.39150    1.00320   1.00
O2       0.50320    0.39150    0.93850   1.00
O2       0.43850    0.32680    0.93850   1.00
O2       0.43850    0.50320    0.89150   1.00
O2       0.50320    0.43850    0.89150   1.00
O2       0.43850    0.43850    0.82680   1.00
O2       0.32680    0.39150    0.89150   1.00
O2       0.39150    0.32680    0.89150   1.00
O2       0.39150    0.39150    0.82680   1.00
C1       0.41500    0.41500    1.02020   1.00
C1       0.41500    0.52020    0.91500   1.00
C1       0.30980    0.41500    0.91500   1.00
C1       0.52020    0.41500    0.91500   1.00
C1       0.41500    0.30980    0.91500   1.00
C1       0.41500    0.41500    0.80980   1.00
O1       0.41500    0.91500    0.41500   1.00
Zn1      0.38220    0.94780    0.44780   1.00
Zn1      0.44780    0.88220    0.44780   1.00
Zn1      0.44780    0.94780    0.38220   1.00
Zn1      0.38220    0.88220    0.38220   1.00
O2       0.39150    0.93850    0.50320   1.00
O2       0.39150    1.00320    0.43850   1.00
O2       0.32680    0.93850    0.43850   1.00
O2       0.43850    0.89150    0.50320   1.00
O2       0.50320    0.89150    0.43850   1.00
O2       0.43850    0.82680    0.43850   1.00
O2       0.43850    1.00320    0.39150   1.00
O2       0.50320    0.93850    0.39150   1.00
O2       0.43850    0.93850    0.32680   1.00
O2       0.32680    0.89150    0.39150   1.00
O2       0.39150    0.82680    0.39150   1.00
O2       0.39150    0.89150    0.32680   1.00
C1       0.41500    0.91500    0.52020   1.00
C1       0.41500    1.02020    0.41500   1.00
C1       0.30980    0.91500    0.41500   1.00
C1       0.52020    0.91500    0.41500   1.00
C1       0.41500    0.80980    0.41500   1.00
C1       0.41500    0.91500    0.30980   1.00
O1       0.91500    0.41500    0.41500   1.00
Zn1      0.88220    0.44780    0.44780   1.00
Zn1      0.94780    0.38220    0.44780   1.00
Zn1      0.94780    0.44780    0.38220   1.00
Zn1      0.88220    0.38220    0.38220   1.00
O2       0.89150    0.43850    0.50320   1.00
O2       0.89150    0.50320    0.43850   1.00
O2       0.82680    0.43850    0.43850   1.00
O2       0.93850    0.39150    0.50320   1.00
O2       1.00320    0.39150    0.43850   1.00
O2       0.93850    0.32680    0.43850   1.00
O2       0.93850    0.50320    0.39150   1.00
O2       1.00320    0.43850    0.39150   1.00
O2       0.93850    0.43850    0.32680   1.00
O2       0.82680    0.39150    0.39150   1.00
O2       0.89150    0.32680    0.39150   1.00
O2       0.89150    0.39150    0.32680   1.00
C1       0.91500    0.41500    0.52020   1.00
C1       0.91500    0.52020    0.41500   1.00
C1       0.80980    0.41500    0.41500   1.00
C1       1.02020    0.41500    0.41500   1.00
C1       0.91500    0.30980    0.41500   1.00
C1       0.91500    0.41500    0.30980   1.00
O1       0.41500    0.41500    0.41500   1.00
Zn1      0.44780    0.38220    0.38220   1.00
Zn1      0.38220    0.44780    0.38220   1.00
Zn1      0.38220    0.38220    0.44780   1.00
Zn1      0.44780    0.44780    0.44780   1.00
O2       0.43850    0.39150    0.32680   1.00
O2       0.43850    0.32680    0.39150   1.00
O2       0.50320    0.39150    0.39150   1.00
O2       0.39150    0.43850    0.32680   1.00
O2       0.32680    0.43850    0.39150   1.00
O2       0.39150    0.50320    0.39150   1.00
O2       0.39150    0.32680    0.43850   1.00
O2       0.32680    0.39150    0.43850   1.00
O2       0.39150    0.39150    0.50320   1.00
O2       0.50320    0.43850    0.43850   1.00
O2       0.43850    0.50320    0.43850   1.00
O2       0.43850    0.43850    0.50320   1.00
C1       0.41500    0.41500    0.30980   1.00
C1       0.41500    0.30980    0.41500   1.00
C1       0.52020    0.41500    0.41500   1.00
C1       0.30980    0.41500    0.41500   1.00
C1       0.41500    0.52020    0.41500   1.00
C1       0.41500    0.41500    0.52020   1.00
O1       0.91500    0.91500    0.41500   1.00
Zn1      0.94780    0.88220    0.38220   1.00
Zn1      0.88220    0.94780    0.38220   1.00
Zn1      0.88220    0.88220    0.44780   1.00
Zn1      0.94780    0.94780    0.44780   1.00
O2       0.93850    0.89150    0.32680   1.00
O2       0.93850    0.82680    0.39150   1.00
O2       1.00320    0.89150    0.39150   1.00
O2       0.89150    0.93850    0.32680   1.00
O2       0.82680    0.93850    0.39150   1.00
O2       0.89150    1.00320    0.39150   1.00
O2       0.89150    0.82680    0.43850   1.00
O2       0.82680    0.89150    0.43850   1.00
O2       0.89150    0.89150    0.50320   1.00
O2       1.00320    0.93850    0.43850   1.00
O2       0.93850    1.00320    0.43850   1.00
O2       0.93850    0.93850    0.50320   1.00
C1       0.91500    0.91500    0.30980   1.00
C1       0.91500    0.80980    0.41500   1.00
C1       1.02020    0.91500    0.41500   1.00
C1       0.80980    0.91500    0.41500   1.00
C1       0.91500    1.02020    0.41500   1.00
C1       0.91500    0.91500    0.52020   1.00
O1       0.91500    0.41500    0.91500   1.00
Zn1      0.94780    0.38220    0.88220   1.00
Zn1      0.88220    0.44780    0.88220   1.00
Zn1      0.88220    0.38220    0.94780   1.00
Zn1      0.94780    0.44780    0.94780   1.00
O2       0.93850    0.39150    0.82680   1.00
O2       0.93850    0.32680    0.89150   1.00
O2       1.00320    0.39150    0.89150   1.00
O2       0.89150    0.43850    0.82680   1.00
O2       0.82680    0.43850    0.89150   1.00
O2       0.89150    0.50320    0.89150   1.00
O2       0.89150    0.32680    0.93850   1.00
O2       0.82680    0.39150    0.93850   1.00
O2       0.89150    0.39150    1.00320   1.00
O2       1.00320    0.43850    0.93850   1.00
O2       0.93850    0.50320    0.93850   1.00
O2       0.93850    0.43850    1.00320   1.00
C1       0.91500    0.41500    0.80980   1.00
C1       0.91500    0.30980    0.91500   1.00
C1       1.02020    0.41500    0.91500   1.00
C1       0.80980    0.41500    0.91500   1.00
C1       0.91500    0.52020    0.91500   1.00
C1       0.91500    0.41500    1.02020   1.00
O1       0.41500    0.91500    0.91500   1.00
Zn1      0.44780    0.88220    0.88220   1.00
Zn1      0.38220    0.94780    0.88220   1.00
Zn1      0.38220    0.88220    0.94780   1.00
Zn1      0.44780    0.94780    0.94780   1.00
O2       0.43850    0.89150    0.82680   1.00
O2       0.43850    0.82680    0.89150   1.00
O2       0.50320    0.89150    0.89150   1.00
O2       0.39150    0.93850    0.82680   1.00
O2       0.32680    0.93850    0.89150   1.00
O2       0.39150    1.00320    0.89150   1.00
O2       0.39150    0.82680    0.93850   1.00
O2       0.32680    0.89150    0.93850   1.00
O2       0.39150    0.89150    1.00320   1.00
O2       0.50320    0.93850    0.93850   1.00
O2       0.43850    1.00320    0.93850   1.00
O2       0.43850    0.93850    1.00320   1.00
C1       0.41500    0.91500    0.80980   1.00
C1       0.41500    0.80980    0.91500   1.00
C1       0.52020    0.91500    0.91500   1.00
C1       0.30980    0.91500    0.91500   1.00
C1       0.41500    1.02020    0.91500   1.00
C1       0.41500    0.91500    1.02020   1.00
C4       0.74698    0.75039    1.02084   1.00
C4       0.74755    0.75085    0.97912   1.00
C3       0.72040    0.77254    1.04364   1.00
C3       0.72405    0.77611    0.95616   1.00
C3       0.77481    0.72704    1.04123   1.00
C3       0.77282    0.72466    0.95886   1.00
C2       0.74898    0.74938    1.10512   1.00
C2       0.75102    0.75062    0.89488   1.00
C3       0.72149    0.77223    1.08462   1.00
C3       0.72546    0.77576    0.91519   1.00
C3       0.77496    0.72657    1.08258   1.00
C3       0.77501    0.72594    0.91762   1.00
H1       0.69938    0.78943    1.03115   1.00
H1       0.70540    0.79567    0.96852   1.00
C5       0.80220    0.70419    1.02020   1.00
C5       0.79603    0.69758    0.97980   1.00
H1       0.70172    0.78906    1.09955   1.00
H1       0.70755    0.79445    0.90010   1.00
H1       0.79437    0.70886    1.09680   1.00
H1       0.79504    0.70878    0.90368   1.00
O3       0.83291    0.68697    1.03961   1.00
O3       0.81460    0.66711    0.96099   1.00
Si1      0.87478    0.70954    1.04247   1.00
Si1      0.79034    0.62696    0.95279   1.00
C6       0.89735    0.67696    1.07538   1.00
C6       0.89670    0.70727    0.99598   1.00
C6       0.87110    0.75685    1.06253   1.00
C6       0.74077    0.62504    0.96693   1.00
C6       0.79382    0.62145    0.90198   1.00
C6       0.81656    0.58859    0.97477   1.00
C6       0.87252    0.66512    1.11194   1.00
H2       0.89983    0.65042    1.05791   1.00
C6       0.93948    0.68506    1.09147   1.00
H2       0.88314    0.68126    0.98358   1.00
C6       0.88830    0.74096    0.96634   1.00
C6       0.94172    0.70004    0.99336   1.00
H2       0.85300    0.75182    1.08831   1.00
C6       0.90964    0.77622    1.07772   1.00
C6       0.85057    0.79009    1.03849   1.00
C6       0.73060    0.63295    1.01071   1.00
C6       0.70940    0.64734    0.94225   1.00
H2       0.73358    0.59438    0.96212   1.00
H2       0.77555    0.64486    0.89051   1.00
C6       0.83517    0.62831    0.88378   1.00
C6       0.77793    0.58266    0.88393   1.00
H2       0.83955    0.58191    0.95375   1.00
C6       0.83847    0.59863    1.01336   1.00
C6       0.79469    0.54920    0.98244   1.00
H2       0.84430    0.65296    1.10346   1.00
H2       0.86717    0.69020    1.13090   1.00
H2       0.88731    0.64270    1.12917   1.00
H2       0.95489    0.65749    1.09608   1.00
H2       0.95708    0.70261    1.07178   1.00
H2       0.93900    0.69996    1.11964   1.00
H2       0.89636    0.73222    0.93672   1.00
H2       0.85749    0.74856    0.96532   1.00
H2       0.90504    0.76708    0.97352   1.00
H2       0.95014    0.67339    1.00862   1.00
H2       0.95112    0.69627    0.96308   1.00
H2       0.95804    0.72459    1.00550   1.00
H2       0.93213    0.77633    1.05514   1.00
H2       0.90503    0.80641    1.08708   1.00
H2       0.92079    0.76122    1.10332   1.00
H2       0.87085    0.80507    1.01902   1.00
H2       0.82657    0.77982    1.02068   1.00
H2       0.83860    0.81210    1.05828   1.00
H2       0.72854    0.66406    1.01688   1.00
H2       0.70234    0.62011    1.01809   1.00
H2       0.75199    0.62030    1.03048   1.00
H2       0.67995    0.63891    0.95125   1.00
H2       0.71146    0.67882    0.94574   1.00
H2       0.71150    0.64057    0.91122   1.00
H2       0.83309    0.63083    0.85202   1.00
H2       0.84819    0.65544    0.89435   1.00
H2       0.85521    0.60445    0.89035   1.00
H2       0.74850    0.57608    0.89416   1.00
H2       0.77640    0.58500    0.85212   1.00
H2       0.79686    0.55798    0.89085   1.00
H2       0.81852    0.60735    1.03656   1.00
H2       0.85579    0.57399    1.02381   1.00
H2       0.85857    0.62259    1.00834   1.00
H2       0.81528    0.52617    0.99044   1.00
H2       0.77363    0.55201    1.00622   1.00
H2       0.77921    0.53907    0.95657   1.00
C4       0.75039    1.02084    0.74698   1.00
C4       0.75085    0.97912    0.74755   1.00
C3       0.77254    1.04364    0.72040   1.00
C3       0.77611    0.95616    0.72405   1.00
C3       0.72704    1.04123    0.77481   1.00
C3       0.72466    0.95886    0.77282   1.00
C2       0.74938    1.10512    0.74898   1.00
C2       0.75062    0.89488    0.75102   1.00
C3       0.77223    1.08462    0.72149   1.00
C3       0.77576    0.91519    0.72546   1.00
C3       0.72657    1.08258    0.77496   1.00
C3       0.72594    0.91762    0.77501   1.00
H1       0.78943    1.03115    0.69938   1.00
H1       0.79567    0.96852    0.70540   1.00
C5       0.70419    1.02020    0.80220   1.00
C5       0.69758    0.97980    0.79603   1.00
H1       0.78906    1.09955    0.70172   1.00
H1       0.79445    0.90010    0.70755   1.00
H1       0.70886    1.09680    0.79437   1.00
H1       0.70878    0.90368    0.79504   1.00
O3       0.68697    1.03961    0.83291   1.00
O3       0.66711    0.96099    0.81460   1.00
Si1      0.70954    1.04247    0.87478   1.00
Si1      0.62696    0.95279    0.79034   1.00
C6       0.67696    1.07538    0.89735   1.00
C6       0.70727    0.99598    0.89670   1.00
C6       0.75685    1.06253    0.87110   1.00
C6       0.62504    0.96693    0.74077   1.00
C6       0.62145    0.90198    0.79382   1.00
C6       0.58859    0.97477    0.81656   1.00
C6       0.66512    1.11194    0.87252   1.00
H2       0.65042    1.05791    0.89983   1.00
C6       0.68506    1.09147    0.93948   1.00
H2       0.68126    0.98358    0.88314   1.00
C6       0.74096    0.96634    0.88830   1.00
C6       0.70004    0.99336    0.94172   1.00
H2       0.75182    1.08831    0.85300   1.00
C6       0.77622    1.07772    0.90964   1.00
C6       0.79009    1.03849    0.85057   1.00
C6       0.63295    1.01071    0.73060   1.00
C6       0.64734    0.94225    0.70940   1.00
H2       0.59438    0.96212    0.73358   1.00
H2       0.64486    0.89051    0.77555   1.00
C6       0.62831    0.88378    0.83517   1.00
C6       0.58266    0.88393    0.77793   1.00
H2       0.58191    0.95375    0.83955   1.00
C6       0.59863    1.01336    0.83847   1.00
C6       0.54920    0.98244    0.79469   1.00
H2       0.65296    1.10346    0.84430   1.00
H2       0.69020    1.13090    0.86717   1.00
H2       0.64270    1.12917    0.88731   1.00
H2       0.65749    1.09608    0.95489   1.00
H2       0.70261    1.07178    0.95708   1.00
H2       0.69996    1.11964    0.93900   1.00
H2       0.73222    0.93672    0.89636   1.00
H2       0.74856    0.96532    0.85749   1.00
H2       0.76708    0.97352    0.90504   1.00
H2       0.67339    1.00862    0.95014   1.00
H2       0.69627    0.96308    0.95112   1.00
H2       0.72459    1.00550    0.95804   1.00
H2       0.77633    1.05514    0.93213   1.00
H2       0.80641    1.08708    0.90503   1.00
H2       0.76122    1.10332    0.92079   1.00
H2       0.80507    1.01902    0.87085   1.00
H2       0.77982    1.02068    0.82657   1.00
H2       0.81210    1.05828    0.83860   1.00
H2       0.66406    1.01688    0.72854   1.00
H2       0.62011    1.01809    0.70234   1.00
H2       0.62030    1.03048    0.75199   1.00
H2       0.63891    0.95125    0.67995   1.00
H2       0.67882    0.94574    0.71146   1.00
H2       0.64057    0.91122    0.71150   1.00
H2       0.63083    0.85202    0.83309   1.00
H2       0.65544    0.89435    0.84819   1.00
H2       0.60445    0.89035    0.85521   1.00
H2       0.57608    0.89416    0.74850   1.00
H2       0.58500    0.85212    0.77640   1.00
H2       0.55798    0.89085    0.79686   1.00
H2       0.60735    1.03656    0.81852   1.00
H2       0.57399    1.02381    0.85579   1.00
H2       0.62259    1.00834    0.85857   1.00
H2       0.52617    0.99044    0.81528   1.00
H2       0.55201    1.00622    0.77363   1.00
H2       0.53907    0.95657    0.77921   1.00
C4       0.47916    0.74698    0.74961   1.00
C4       0.52088    0.74755    0.74915   1.00
C3       0.45636    0.72040    0.72746   1.00
C3       0.54384    0.72405    0.72389   1.00
C3       0.45877    0.77481    0.77296   1.00
C3       0.54114    0.77282    0.77534   1.00
C2       0.39488    0.74898    0.75062   1.00
C2       0.60512    0.75102    0.74938   1.00
C3       0.41538    0.72149    0.72777   1.00
C3       0.58481    0.72546    0.72424   1.00
C3       0.41742    0.77496    0.77343   1.00
C3       0.58238    0.77501    0.77406   1.00
H1       0.46885    0.69938    0.71057   1.00
H1       0.53148    0.70540    0.70433   1.00
C5       0.47980    0.80220    0.79581   1.00
C5       0.52020    0.79603    0.80242   1.00
H1       0.40045    0.70172    0.71094   1.00
H1       0.59990    0.70755    0.70555   1.00
H1       0.40320    0.79437    0.79114   1.00
H1       0.59632    0.79504    0.79122   1.00
O3       0.46039    0.83291    0.81303   1.00
O3       0.53901    0.81460    0.83289   1.00
Si1      0.45753    0.87478    0.79046   1.00
Si1      0.54721    0.79034    0.87304   1.00
C6       0.42462    0.89735    0.82304   1.00
C6       0.50402    0.89670    0.79273   1.00
C6       0.43747    0.87110    0.74315   1.00
C6       0.53307    0.74077    0.87496   1.00
C6       0.59802    0.79382    0.87855   1.00
C6       0.52523    0.81656    0.91141   1.00
C6       0.38806    0.87252    0.83488   1.00
H2       0.44209    0.89983    0.84958   1.00
C6       0.40853    0.93948    0.81494   1.00
H2       0.51642    0.88314    0.81874   1.00
C6       0.53366    0.88830    0.75904   1.00
C6       0.50664    0.94172    0.79996   1.00
H2       0.41169    0.85300    0.74818   1.00
C6       0.42228    0.90964    0.72378   1.00
C6       0.46151    0.85057    0.70991   1.00
C6       0.48929    0.73060    0.86705   1.00
C6       0.55775    0.70940    0.85266   1.00
H2       0.53788    0.73358    0.90562   1.00
H2       0.60949    0.77555    0.85514   1.00
C6       0.61622    0.83517    0.87169   1.00
C6       0.61607    0.77793    0.91734   1.00
H2       0.54625    0.83955    0.91809   1.00
C6       0.48664    0.83847    0.90137   1.00
C6       0.51756    0.79469    0.95080   1.00
H2       0.39654    0.84430    0.84704   1.00
H2       0.36910    0.86717    0.80980   1.00
H2       0.37083    0.88731    0.85730   1.00
H2       0.40392    0.95489    0.84251   1.00
H2       0.42822    0.95708    0.79739   1.00
H2       0.38036    0.93900    0.80004   1.00
H2       0.56328    0.89636    0.76778   1.00
H2       0.53468    0.85749    0.75144   1.00
H2       0.52648    0.90504    0.73292   1.00
H2       0.49138    0.95014    0.82661   1.00
H2       0.53692    0.95112    0.80373   1.00
H2       0.49450    0.95804    0.77541   1.00
H2       0.44486    0.93213    0.72367   1.00
H2       0.41292    0.90503    0.69359   1.00
H2       0.39668    0.92079    0.73878   1.00
H2       0.48098    0.87085    0.69493   1.00
H2       0.47932    0.82657    0.72018   1.00
H2       0.44172    0.83860    0.68790   1.00
H2       0.48312    0.72854    0.83594   1.00
H2       0.48191    0.70234    0.87989   1.00
H2       0.46952    0.75199    0.87970   1.00
H2       0.54875    0.67995    0.86109   1.00
H2       0.55426    0.71146    0.82118   1.00
H2       0.58878    0.71150    0.85943   1.00
H2       0.64798    0.83309    0.86917   1.00
H2       0.60565    0.84819    0.84456   1.00
H2       0.60965    0.85521    0.89555   1.00
H2       0.60584    0.74850    0.92392   1.00
H2       0.64788    0.77640    0.91500   1.00
H2       0.60915    0.79686    0.94202   1.00
H2       0.46344    0.81852    0.89265   1.00
H2       0.47619    0.85579    0.92601   1.00
H2       0.49166    0.85857    0.87741   1.00
H2       0.50956    0.81528    0.97383   1.00
H2       0.49378    0.77363    0.94799   1.00
H2       0.54343    0.77921    0.96093   1.00
C4       1.02084    0.74698    0.75039   1.00
C4       0.97912    0.74755    0.75085   1.00
C3       1.04364    0.72040    0.77254   1.00
C3       0.95616    0.72405    0.77611   1.00
C3       1.04123    0.77481    0.72704   1.00
C3       0.95886    0.77282    0.72466   1.00
C2       1.10512    0.74898    0.74938   1.00
C2       0.89488    0.75102    0.75062   1.00
C3       1.08462    0.72149    0.77223   1.00
C3       0.91519    0.72546    0.77576   1.00
C3       1.08258    0.77496    0.72657   1.00
C3       0.91762    0.77501    0.72594   1.00
H1       1.03115    0.69938    0.78943   1.00
H1       0.96852    0.70540    0.79567   1.00
C5       1.02020    0.80220    0.70419   1.00
C5       0.97980    0.79603    0.69758   1.00
H1       1.09955    0.70172    0.78906   1.00
H1       0.90010    0.70755    0.79445   1.00
H1       1.09680    0.79437    0.70886   1.00
H1       0.90368    0.79504    0.70878   1.00
O3       1.03961    0.83291    0.68697   1.00
O3       0.96099    0.81460    0.66711   1.00
Si1      1.04247    0.87478    0.70954   1.00
Si1      0.95279    0.79034    0.62696   1.00
C6       1.07538    0.89735    0.67696   1.00
C6       0.99598    0.89670    0.70727   1.00
C6       1.06253    0.87110    0.75685   1.00
C6       0.96693    0.74077    0.62504   1.00
C6       0.90198    0.79382    0.62145   1.00
C6       0.97477    0.81656    0.58859   1.00
C6       1.11194    0.87252    0.66512   1.00
H2       1.05791    0.89983    0.65042   1.00
C6       1.09147    0.93948    0.68506   1.00
H2       0.98358    0.88314    0.68126   1.00
C6       0.96634    0.88830    0.74096   1.00
C6       0.99336    0.94172    0.70004   1.00
H2       1.08831    0.85300    0.75182   1.00
C6       1.07772    0.90964    0.77622   1.00
C6       1.03849    0.85057    0.79009   1.00
C6       1.01071    0.73060    0.63295   1.00
C6       0.94225    0.70940    0.64734   1.00
H2       0.96212    0.73358    0.59438   1.00
H2       0.89051    0.77555    0.64486   1.00
C6       0.88378    0.83517    0.62831   1.00
C6       0.88393    0.77793    0.58266   1.00
H2       0.95375    0.83955    0.58191   1.00
C6       1.01336    0.83847    0.59863   1.00
C6       0.98244    0.79469    0.54920   1.00
H2       1.10346    0.84430    0.65296   1.00
H2       1.13090    0.86717    0.69020   1.00
H2       1.12917    0.88731    0.64270   1.00
H2       1.09608    0.95489    0.65749   1.00
H2       1.07178    0.95708    0.70261   1.00
H2       1.11964    0.93900    0.69996   1.00
H2       0.93672    0.89636    0.73222   1.00
H2       0.96532    0.85749    0.74856   1.00
H2       0.97352    0.90504    0.76708   1.00
H2       1.00862    0.95014    0.67339   1.00
H2       0.96308    0.95112    0.69627   1.00
H2       1.00550    0.95804    0.72459   1.00
H2       1.05514    0.93213    0.77633   1.00
H2       1.08708    0.90503    0.80641   1.00
H2       1.10332    0.92079    0.76122   1.00
H2       1.01902    0.87085    0.80507   1.00
H2       1.02068    0.82657    0.77982   1.00
H2       1.05828    0.83860    0.81210   1.00
H2       1.01688    0.72854    0.66406   1.00
H2       1.01809    0.70234    0.62011   1.00
H2       1.03048    0.75199    0.62030   1.00
H2       0.95125    0.67995    0.63891   1.00
H2       0.94574    0.71146    0.67882   1.00
H2       0.91122    0.71150    0.64057   1.00
H2       0.85202    0.83309    0.63083   1.00
H2       0.89435    0.84819    0.65544   1.00
H2       0.89035    0.85521    0.60445   1.00
H2       0.89416    0.74850    0.57608   1.00
H2       0.85212    0.77640    0.58500   1.00
H2       0.89085    0.79686    0.55798   1.00
H2       1.03656    0.81852    0.60735   1.00
H2       1.02381    0.85579    0.57399   1.00
H2       1.00834    0.85857    0.62259   1.00
H2       0.99044    0.81528    0.52617   1.00
H2       1.00622    0.77363    0.55201   1.00
H2       0.95657    0.77921    0.53907   1.00
C4       0.74961    0.47916    0.74698   1.00
C4       0.74915    0.52088    0.74755   1.00
C3       0.72746    0.45636    0.72040   1.00
C3       0.72389    0.54384    0.72405   1.00
C3       0.77296    0.45877    0.77481   1.00
C3       0.77534    0.54114    0.77282   1.00
C2       0.75062    0.39488    0.74898   1.00
C2       0.74938    0.60512    0.75102   1.00
C3       0.72777    0.41538    0.72149   1.00
C3       0.72424    0.58481    0.72546   1.00
C3       0.77343    0.41742    0.77496   1.00
C3       0.77406    0.58238    0.77501   1.00
H1       0.71057    0.46885    0.69938   1.00
H1       0.70433    0.53148    0.70540   1.00
C5       0.79581    0.47980    0.80220   1.00
C5       0.80242    0.52020    0.79603   1.00
H1       0.71094    0.40045    0.70172   1.00
H1       0.70555    0.59990    0.70755   1.00
H1       0.79114    0.40320    0.79437   1.00
H1       0.79122    0.59632    0.79504   1.00
O3       0.81303    0.46039    0.83291   1.00
O3       0.83289    0.53901    0.81460   1.00
Si1      0.79046    0.45753    0.87478   1.00
Si1      0.87304    0.54721    0.79034   1.00
C6       0.82304    0.42462    0.89735   1.00
C6       0.79273    0.50402    0.89670   1.00
C6       0.74315    0.43747    0.87110   1.00
C6       0.87496    0.53307    0.74077   1.00
C6       0.87855    0.59802    0.79382   1.00
C6       0.91141    0.52523    0.81656   1.00
C6       0.83488    0.38806    0.87252   1.00
H2       0.84958    0.44209    0.89983   1.00
C6       0.81494    0.40853    0.93948   1.00
H2       0.81874    0.51642    0.88314   1.00
C6       0.75904    0.53366    0.88830   1.00
C6       0.79996    0.50664    0.94172   1.00
H2       0.74818    0.41169    0.85300   1.00
C6       0.72378    0.42228    0.90964   1.00
C6       0.70991    0.46151    0.85057   1.00
C6       0.86705    0.48929    0.73060   1.00
C6       0.85266    0.55775    0.70940   1.00
H2       0.90562    0.53788    0.73358   1.00
H2       0.85514    0.60949    0.77555   1.00
C6       0.87169    0.61622    0.83517   1.00
C6       0.91734    0.61607    0.77793   1.00
H2       0.91809    0.54625    0.83955   1.00
C6       0.90137    0.48664    0.83847   1.00
C6       0.95080    0.51756    0.79469   1.00
H2       0.84704    0.39654    0.84430   1.00
H2       0.80980    0.36910    0.86717   1.00
H2       0.85730    0.37083    0.88731   1.00
H2       0.84251    0.40392    0.95489   1.00
H2       0.79739    0.42822    0.95708   1.00
H2       0.80004    0.38036    0.93900   1.00
H2       0.76778    0.56328    0.89636   1.00
H2       0.75144    0.53468    0.85749   1.00
H2       0.73292    0.52648    0.90504   1.00
H2       0.82661    0.49138    0.95014   1.00
H2       0.80373    0.53692    0.95112   1.00
H2       0.77541    0.49450    0.95804   1.00
H2       0.72367    0.44486    0.93213   1.00
H2       0.69359    0.41292    0.90503   1.00
H2       0.73878    0.39668    0.92079   1.00
H2       0.69493    0.48098    0.87085   1.00
H2       0.72018    0.47932    0.82657   1.00
H2       0.68790    0.44172    0.83860   1.00
H2       0.83594    0.48312    0.72854   1.00
H2       0.87989    0.48191    0.70234   1.00
H2       0.87970    0.46952    0.75199   1.00
H2       0.86109    0.54875    0.67995   1.00
H2       0.82118    0.55426    0.71146   1.00
H2       0.85943    0.58878    0.71150   1.00
H2       0.86917    0.64798    0.83309   1.00
H2       0.84456    0.60565    0.84819   1.00
H2       0.89555    0.60965    0.85521   1.00
H2       0.92392    0.60584    0.74850   1.00
H2       0.91500    0.64788    0.77640   1.00
H2       0.94202    0.60915    0.79686   1.00
H2       0.89265    0.46344    0.81852   1.00
H2       0.92601    0.47619    0.85579   1.00
H2       0.87741    0.49166    0.85857   1.00
H2       0.97383    0.50956    0.81528   1.00
H2       0.94799    0.49378    0.77363   1.00
H2       0.96093    0.54343    0.77921   1.00
C4       0.74698    0.74961    0.47916   1.00
C4       0.74755    0.74915    0.52088   1.00
C3       0.72040    0.72746    0.45636   1.00
C3       0.72405    0.72389    0.54384   1.00
C3       0.77481    0.77296    0.45877   1.00
C3       0.77282    0.77534    0.54114   1.00
C2       0.74898    0.75062    0.39488   1.00
C2       0.75102    0.74938    0.60512   1.00
C3       0.72149    0.72777    0.41538   1.00
C3       0.72546    0.72424    0.58481   1.00
C3       0.77496    0.77343    0.41742   1.00
C3       0.77501    0.77406    0.58238   1.00
H1       0.69938    0.71057    0.46885   1.00
H1       0.70540    0.70433    0.53148   1.00
C5       0.80220    0.79581    0.47980   1.00
C5       0.79603    0.80242    0.52020   1.00
H1       0.70172    0.71094    0.40045   1.00
H1       0.70755    0.70555    0.59990   1.00
H1       0.79437    0.79114    0.40320   1.00
H1       0.79504    0.79122    0.59632   1.00
O3       0.83291    0.81303    0.46039   1.00
O3       0.81460    0.83289    0.53901   1.00
Si1      0.87478    0.79046    0.45753   1.00
Si1      0.79034    0.87304    0.54721   1.00
C6       0.89735    0.82304    0.42462   1.00
C6       0.89670    0.79273    0.50402   1.00
C6       0.87110    0.74315    0.43747   1.00
C6       0.74077    0.87496    0.53307   1.00
C6       0.79382    0.87855    0.59802   1.00
C6       0.81656    0.91141    0.52523   1.00
C6       0.87252    0.83488    0.38806   1.00
H2       0.89983    0.84958    0.44209   1.00
C6       0.93948    0.81494    0.40853   1.00
H2       0.88314    0.81874    0.51642   1.00
C6       0.88830    0.75904    0.53366   1.00
C6       0.94172    0.79996    0.50664   1.00
H2       0.85300    0.74818    0.41169   1.00
C6       0.90964    0.72378    0.42228   1.00
C6       0.85057    0.70991    0.46151   1.00
C6       0.73060    0.86705    0.48929   1.00
C6       0.70940    0.85266    0.55775   1.00
H2       0.73358    0.90562    0.53788   1.00
H2       0.77555    0.85514    0.60949   1.00
C6       0.83517    0.87169    0.61622   1.00
C6       0.77793    0.91734    0.61607   1.00
H2       0.83955    0.91809    0.54625   1.00
C6       0.83847    0.90137    0.48664   1.00
C6       0.79469    0.95080    0.51756   1.00
H2       0.84430    0.84704    0.39654   1.00
H2       0.86717    0.80980    0.36910   1.00
H2       0.88731    0.85730    0.37083   1.00
H2       0.95489    0.84251    0.40392   1.00
H2       0.95708    0.79739    0.42822   1.00
H2       0.93900    0.80004    0.38036   1.00
H2       0.89636    0.76778    0.56328   1.00
H2       0.85749    0.75144    0.53468   1.00
H2       0.90504    0.73292    0.52648   1.00
H2       0.95014    0.82661    0.49138   1.00
H2       0.95112    0.80373    0.53692   1.00
H2       0.95804    0.77541    0.49450   1.00
H2       0.93213    0.72367    0.44486   1.00
H2       0.90503    0.69359    0.41292   1.00
H2       0.92079    0.73878    0.39668   1.00
H2       0.87085    0.69493    0.48098   1.00
H2       0.82657    0.72018    0.47932   1.00
H2       0.83860    0.68790    0.44172   1.00
H2       0.72854    0.83594    0.48312   1.00
H2       0.70234    0.87989    0.48191   1.00
H2       0.75199    0.87970    0.46952   1.00
H2       0.67995    0.86109    0.54875   1.00
H2       0.71146    0.82118    0.55426   1.00
H2       0.71150    0.85943    0.58878   1.00
H2       0.83309    0.86917    0.64798   1.00
H2       0.84819    0.84456    0.60565   1.00
H2       0.85521    0.89555    0.60965   1.00
H2       0.74850    0.92392    0.60584   1.00
H2       0.77640    0.91500    0.64788   1.00
H2       0.79686    0.94202    0.60915   1.00
H2       0.81852    0.89265    0.46344   1.00
H2       0.85579    0.92601    0.47619   1.00
H2       0.85857    0.87741    0.49166   1.00
H2       0.81528    0.97383    0.50956   1.00
H2       0.77363    0.94799    0.49378   1.00
H2       0.77921    0.96093    0.54343   1.00
C4       0.24698    0.25039    1.02084   1.00
C4       0.24755    0.25085    0.97912   1.00
C3       0.22040    0.27254    1.04364   1.00
C3       0.22405    0.27611    0.95616   1.00
C3       0.27481    0.22704    1.04123   1.00
C3       0.27282    0.22466    0.95886   1.00
C2       0.24898    0.24938    1.10512   1.00
C2       0.25102    0.25062    0.89488   1.00
C3       0.22149    0.27223    1.08462   1.00
C3       0.22546    0.27576    0.91519   1.00
C3       0.27496    0.22657    1.08258   1.00
C3       0.27501    0.22594    0.91762   1.00
H1       0.19938    0.28943    1.03115   1.00
H1       0.20540    0.29567    0.96852   1.00
C5       0.30220    0.20419    1.02020   1.00
C5       0.29603    0.19758    0.97980   1.00
H1       0.20172    0.28906    1.09955   1.00
H1       0.20755    0.29445    0.90010   1.00
H1       0.29437    0.20886    1.09680   1.00
H1       0.29504    0.20878    0.90368   1.00
O3       0.33291    0.18697    1.03961   1.00
O3       0.31460    0.16711    0.96099   1.00
Si1      0.37478    0.20954    1.04247   1.00
Si1      0.29034    0.12696    0.95279   1.00
C6       0.39735    0.17696    1.07538   1.00
C6       0.39670    0.20727    0.99598   1.00
C6       0.37110    0.25685    1.06253   1.00
C6       0.24077    0.12504    0.96693   1.00
C6       0.29382    0.12145    0.90198   1.00
C6       0.31656    0.08859    0.97477   1.00
C6       0.37252    0.16512    1.11194   1.00
H2       0.39983    0.15042    1.05791   1.00
C6       0.43948    0.18506    1.09147   1.00
H2       0.38314    0.18126    0.98358   1.00
C6       0.38830    0.24096    0.96634   1.00
C6       0.44172    0.20004    0.99336   1.00
H2       0.35300    0.25182    1.08831   1.00
C6       0.40964    0.27622    1.07772   1.00
C6       0.35057    0.29009    1.03849   1.00
C6       0.23060    0.13295    1.01071   1.00
C6       0.20940    0.14734    0.94225   1.00
H2       0.23358    0.09438    0.96212   1.00
H2       0.27555    0.14486    0.89051   1.00
C6       0.33517    0.12831    0.88378   1.00
C6       0.27793    0.08266    0.88393   1.00
H2       0.33955    0.08191    0.95375   1.00
C6       0.33847    0.09863    1.01336   1.00
C6       0.29469    0.04920    0.98244   1.00
H2       0.34430    0.15296    1.10346   1.00
H2       0.36717    0.19020    1.13090   1.00
H2       0.38731    0.14270    1.12917   1.00
H2       0.45489    0.15749    1.09608   1.00
H2       0.45708    0.20261    1.07178   1.00
H2       0.43900    0.19996    1.11964   1.00
H2       0.39636    0.23222    0.93672   1.00
H2       0.35749    0.24856    0.96532   1.00
H2       0.40504    0.26708    0.97352   1.00
H2       0.45014    0.17339    1.00862   1.00
H2       0.45112    0.19627    0.96308   1.00
H2       0.45804    0.22459    1.00550   1.00
H2       0.43213    0.27633    1.05514   1.00
H2       0.40503    0.30641    1.08708   1.00
H2       0.42079    0.26122    1.10332   1.00
H2       0.37085    0.30507    1.01902   1.00
H2       0.32657    0.27982    1.02068   1.00
H2       0.33860    0.31210    1.05828   1.00
H2       0.22854    0.16406    1.01688   1.00
H2       0.20234    0.12011    1.01809   1.00
H2       0.25199    0.12030    1.03048   1.00
H2       0.17995    0.13891    0.95125   1.00
H2       0.21146    0.17882    0.94574   1.00
H2       0.21150    0.14057    0.91122   1.00
H2       0.33309    0.13083    0.85202   1.00
H2       0.34819    0.15544    0.89435   1.00
H2       0.35521    0.10445    0.89035   1.00
H2       0.24850    0.07608    0.89416   1.00
H2       0.27640    0.08500    0.85212   1.00
H2       0.29686    0.05798    0.89085   1.00
H2       0.31852    0.10735    1.03656   1.00
H2       0.35579    0.07399    1.02381   1.00
H2       0.35857    0.12259    1.00834   1.00
H2       0.31528    0.02617    0.99044   1.00
H2       0.27363    0.05201    1.00622   1.00
H2       0.27921    0.03907    0.95657   1.00
C4       0.25039    0.52084    0.74698   1.00
C4       0.25085    0.47912    0.74755   1.00
C3       0.27254    0.54364    0.72040   1.00
C3       0.27611    0.45616    0.72405   1.00
C3       0.22704    0.54123    0.77481   1.00
C3       0.22466    0.45886    0.77282   1.00
C2       0.24938    0.60512    0.74898   1.00
C2       0.25062    0.39488    0.75102   1.00
C3       0.27223    0.58462    0.72149   1.00
C3       0.27576    0.41519    0.72546   1.00
C3       0.22657    0.58258    0.77496   1.00
C3       0.22594    0.41762    0.77501   1.00
H1       0.28943    0.53115    0.69938   1.00
H1       0.29567    0.46852    0.70540   1.00
C5       0.20419    0.52020    0.80220   1.00
C5       0.19758    0.47980    0.79603   1.00
H1       0.28906    0.59955    0.70172   1.00
H1       0.29445    0.40010    0.70755   1.00
H1       0.20886    0.59680    0.79437   1.00
H1       0.20878    0.40368    0.79504   1.00
O3       0.18697    0.53961    0.83291   1.00
O3       0.16711    0.46099    0.81460   1.00
Si1      0.20954    0.54247    0.87478   1.00
Si1      0.12696    0.45279    0.79034   1.00
C6       0.17696    0.57538    0.89735   1.00
C6       0.20727    0.49598    0.89670   1.00
C6       0.25685    0.56253    0.87110   1.00
C6       0.12504    0.46693    0.74077   1.00
C6       0.12145    0.40198    0.79382   1.00
C6       0.08859    0.47477    0.81656   1.00
C6       0.16512    0.61194    0.87252   1.00
H2       0.15042    0.55791    0.89983   1.00
C6       0.18506    0.59147    0.93948   1.00
H2       0.18126    0.48358    0.88314   1.00
C6       0.24096    0.46634    0.88830   1.00
C6       0.20004    0.49336    0.94172   1.00
H2       0.25182    0.58831    0.85300   1.00
C6       0.27622    0.57772    0.90964   1.00
C6       0.29009    0.53849    0.85057   1.00
C6       0.13295    0.51071    0.73060   1.00
C6       0.14734    0.44225    0.70940   1.00
H2       0.09438    0.46212    0.73358   1.00
H2       0.14486    0.39051    0.77555   1.00
C6       0.12831    0.38378    0.83517   1.00
C6       0.08266    0.38393    0.77793   1.00
H2       0.08191    0.45375    0.83955   1.00
C6       0.09863    0.51336    0.83847   1.00
C6       0.04920    0.48244    0.79469   1.00
H2       0.15296    0.60346    0.84430   1.00
H2       0.19020    0.63090    0.86717   1.00
H2       0.14270    0.62917    0.88731   1.00
H2       0.15749    0.59608    0.95489   1.00
H2       0.20261    0.57178    0.95708   1.00
H2       0.19996    0.61964    0.93900   1.00
H2       0.23222    0.43672    0.89636   1.00
H2       0.24856    0.46532    0.85749   1.00
H2       0.26708    0.47352    0.90504   1.00
H2       0.17339    0.50862    0.95014   1.00
H2       0.19627    0.46308    0.95112   1.00
H2       0.22459    0.50550    0.95804   1.00
H2       0.27633    0.55514    0.93213   1.00
H2       0.30641    0.58708    0.90503   1.00
H2       0.26122    0.60332    0.92079   1.00
H2       0.30507    0.51902    0.87085   1.00
H2       0.27982    0.52068    0.82657   1.00
H2       0.31210    0.55828    0.83860   1.00
H2       0.16406    0.51688    0.72854   1.00
H2       0.12011    0.51809    0.70234   1.00
H2       0.12030    0.53048    0.75199   1.00
H2       0.13891    0.45125    0.67995   1.00
H2       0.17882    0.44574    0.71146   1.00
H2       0.14057    0.41122    0.71150   1.00
H2       0.13083    0.35202    0.83309   1.00
H2       0.15544    0.39435    0.84819   1.00
H2       0.10445    0.39035    0.85521   1.00
H2       0.07608    0.39416    0.74850   1.00
H2       0.08500    0.35212    0.77640   1.00
H2       0.05798    0.39085    0.79686   1.00
H2       0.10735    0.53656    0.81852   1.00
H2       0.07399    0.52381    0.85579   1.00
H2       0.12259    0.50834    0.85857   1.00
H2       0.02617    0.49044    0.81528   1.00
H2       0.05201    0.50622    0.77363   1.00
H2       0.03907    0.45657    0.77921   1.00
C4       -0.02084   0.24698    0.74961   1.00
C4       0.02088    0.24755    0.74915   1.00
C3       -0.04364   0.22040    0.72746   1.00
C3       0.04384    0.22405    0.72389   1.00
C3       -0.04123   0.27481    0.77296   1.00
C3       0.04114    0.27282    0.77534   1.00
C2       -0.10512   0.24898    0.75062   1.00
C2       0.10512    0.25102    0.74938   1.00
C3       -0.08462   0.22149    0.72777   1.00
C3       0.08481    0.22546    0.72424   1.00
C3       -0.08258   0.27496    0.77343   1.00
C3       0.08238    0.27501    0.77406   1.00
H1       -0.03115   0.19938    0.71057   1.00
H1       0.03148    0.20540    0.70433   1.00
C5       -0.02020   0.30220    0.79581   1.00
C5       0.02020    0.29603    0.80242   1.00
H1       -0.09955   0.20172    0.71094   1.00
H1       0.09990    0.20755    0.70555   1.00
H1       -0.09680   0.29437    0.79114   1.00
H1       0.09632    0.29504    0.79122   1.00
O3       -0.03961   0.33291    0.81303   1.00
O3       0.03901    0.31460    0.83289   1.00
Si1      -0.04247   0.37478    0.79046   1.00
Si1      0.04721    0.29034    0.87304   1.00
C6       -0.07538   0.39735    0.82304   1.00
C6       0.00402    0.39670    0.79273   1.00
C6       -0.06253   0.37110    0.74315   1.00
C6       0.03307    0.24077    0.87496   1.00
C6       0.09802    0.29382    0.87855   1.00
C6       0.02523    0.31656    0.91141   1.00
C6       -0.11194   0.37252    0.83488   1.00
H2       -0.05791   0.39983    0.84958   1.00
C6       -0.09147   0.43948    0.81494   1.00
H2       0.01642    0.38314    0.81874   1.00
C6       0.03366    0.38830    0.75904   1.00
C6       0.00664    0.44172    0.79996   1.00
H2       -0.08831   0.35300    0.74818   1.00
C6       -0.07772   0.40964    0.72378   1.00
C6       -0.03849   0.35057    0.70991   1.00
C6       -0.01071   0.23060    0.86705   1.00
C6       0.05775    0.20940    0.85266   1.00
H2       0.03788    0.23358    0.90562   1.00
H2       0.10949    0.27555    0.85514   1.00
C6       0.11622    0.33517    0.87169   1.00
C6       0.11607    0.27793    0.91734   1.00
H2       0.04625    0.33955    0.91809   1.00
C6       -0.01336   0.33847    0.90137   1.00
C6       0.01756    0.29469    0.95080   1.00
H2       -0.10346   0.34430    0.84704   1.00
H2       -0.13090   0.36717    0.80980   1.00
H2       -0.12917   0.38731    0.85730   1.00
H2       -0.09608   0.45489    0.84251   1.00
H2       -0.07178   0.45708    0.79739   1.00
H2       -0.11964   0.43900    0.80004   1.00
H2       0.06328    0.39636    0.76778   1.00
H2       0.03468    0.35749    0.75144   1.00
H2       0.02648    0.40504    0.73292   1.00
H2       -0.00862   0.45014    0.82661   1.00
H2       0.03692    0.45112    0.80373   1.00
H2       -0.00550   0.45804    0.77541   1.00
H2       -0.05514   0.43213    0.72367   1.00
H2       -0.08708   0.40503    0.69359   1.00
H2       -0.10332   0.42079    0.73878   1.00
H2       -0.01902   0.37085    0.69493   1.00
H2       -0.02068   0.32657    0.72018   1.00
H2       -0.05828   0.33860    0.68790   1.00
H2       -0.01688   0.22854    0.83594   1.00
H2       -0.01809   0.20234    0.87989   1.00
H2       -0.03048   0.25199    0.87970   1.00
H2       0.04875    0.17995    0.86109   1.00
H2       0.05426    0.21146    0.82118   1.00
H2       0.08878    0.21150    0.85943   1.00
H2       0.14798    0.33309    0.86917   1.00
H2       0.10565    0.34819    0.84456   1.00
H2       0.10965    0.35521    0.89555   1.00
H2       0.10584    0.24850    0.92392   1.00
H2       0.14788    0.27640    0.91500   1.00
H2       0.10915    0.29686    0.94202   1.00
H2       -0.03656   0.31852    0.89265   1.00
H2       -0.02381   0.35579    0.92601   1.00
H2       -0.00834   0.35857    0.87741   1.00
H2       0.00956    0.31528    0.97383   1.00
H2       -0.00622   0.27363    0.94799   1.00
H2       0.04343    0.27921    0.96093   1.00
C4       0.52084    0.24698    0.75039   1.00
C4       0.47912    0.24755    0.75085   1.00
C3       0.54364    0.22040    0.77254   1.00
C3       0.45616    0.22405    0.77611   1.00
C3       0.54123    0.27481    0.72704   1.00
C3       0.45886    0.27282    0.72466   1.00
C2       0.60512    0.24898    0.74938   1.00
C2       0.39488    0.25102    0.75062   1.00
C3       0.58462    0.22149    0.77223   1.00
C3       0.41519    0.22546    0.77576   1.00
C3       0.58258    0.27496    0.72657   1.00
C3       0.41762    0.27501    0.72594   1.00
H1       0.53115    0.19938    0.78943   1.00
H1       0.46852    0.20540    0.79567   1.00
C5       0.52020    0.30220    0.70419   1.00
C5       0.47980    0.29603    0.69758   1.00
H1       0.59955    0.20172    0.78906   1.00
H1       0.40010    0.20755    0.79445   1.00
H1       0.59680    0.29437    0.70886   1.00
H1       0.40368    0.29504    0.70878   1.00
O3       0.53961    0.33291    0.68697   1.00
O3       0.46099    0.31460    0.66711   1.00
Si1      0.54247    0.37478    0.70954   1.00
Si1      0.45279    0.29034    0.62696   1.00
C6       0.57538    0.39735    0.67696   1.00
C6       0.49598    0.39670    0.70727   1.00
C6       0.56253    0.37110    0.75685   1.00
C6       0.46693    0.24077    0.62504   1.00
C6       0.40198    0.29382    0.62145   1.00
C6       0.47477    0.31656    0.58859   1.00
C6       0.61194    0.37252    0.66512   1.00
H2       0.55791    0.39983    0.65042   1.00
C6       0.59147    0.43948    0.68506   1.00
H2       0.48358    0.38314    0.68126   1.00
C6       0.46634    0.38830    0.74096   1.00
C6       0.49336    0.44172    0.70004   1.00
H2       0.58831    0.35300    0.75182   1.00
C6       0.57772    0.40964    0.77622   1.00
C6       0.53849    0.35057    0.79009   1.00
C6       0.51071    0.23060    0.63295   1.00
C6       0.44225    0.20940    0.64734   1.00
H2       0.46212    0.23358    0.59438   1.00
H2       0.39051    0.27555    0.64486   1.00
C6       0.38378    0.33517    0.62831   1.00
C6       0.38393    0.27793    0.58266   1.00
H2       0.45375    0.33955    0.58191   1.00
C6       0.51336    0.33847    0.59863   1.00
C6       0.48244    0.29469    0.54920   1.00
H2       0.60346    0.34430    0.65296   1.00
H2       0.63090    0.36717    0.69020   1.00
H2       0.62917    0.38731    0.64270   1.00
H2       0.59608    0.45489    0.65749   1.00
H2       0.57178    0.45708    0.70261   1.00
H2       0.61964    0.43900    0.69996   1.00
H2       0.43672    0.39636    0.73222   1.00
H2       0.46532    0.35749    0.74856   1.00
H2       0.47352    0.40504    0.76708   1.00
H2       0.50862    0.45014    0.67339   1.00
H2       0.46308    0.45112    0.69627   1.00
H2       0.50550    0.45804    0.72459   1.00
H2       0.55514    0.43213    0.77633   1.00
H2       0.58708    0.40503    0.80641   1.00
H2       0.60332    0.42079    0.76122   1.00
H2       0.51902    0.37085    0.80507   1.00
H2       0.52068    0.32657    0.77982   1.00
H2       0.55828    0.33860    0.81210   1.00
H2       0.51688    0.22854    0.66406   1.00
H2       0.51809    0.20234    0.62011   1.00
H2       0.53048    0.25199    0.62030   1.00
H2       0.45125    0.17995    0.63891   1.00
H2       0.44574    0.21146    0.67882   1.00
H2       0.41122    0.21150    0.64057   1.00
H2       0.35202    0.33309    0.63083   1.00
H2       0.39435    0.34819    0.65544   1.00
H2       0.39035    0.35521    0.60445   1.00
H2       0.39416    0.24850    0.57608   1.00
H2       0.35212    0.27640    0.58500   1.00
H2       0.39085    0.29686    0.55798   1.00
H2       0.53656    0.31852    0.60735   1.00
H2       0.52381    0.35579    0.57399   1.00
H2       0.50834    0.35857    0.62259   1.00
H2       0.49044    0.31528    0.52617   1.00
H2       0.50622    0.27363    0.55201   1.00
H2       0.45657    0.27921    0.53907   1.00
C4       0.24961    -0.02084   0.74698   1.00
C4       0.24915    0.02088    0.74755   1.00
C3       0.22746    -0.04364   0.72040   1.00
C3       0.22389    0.04384    0.72405   1.00
C3       0.27296    -0.04123   0.77481   1.00
C3       0.27534    0.04114    0.77282   1.00
C2       0.25062    -0.10512   0.74898   1.00
C2       0.24938    0.10512    0.75102   1.00
C3       0.22777    -0.08462   0.72149   1.00
C3       0.22424    0.08481    0.72546   1.00
C3       0.27343    -0.08258   0.77496   1.00
C3       0.27406    0.08238    0.77501   1.00
H1       0.21057    -0.03115   0.69938   1.00
H1       0.20433    0.03148    0.70540   1.00
C5       0.29581    -0.02020   0.80220   1.00
C5       0.30242    0.02020    0.79603   1.00
H1       0.21094    -0.09955   0.70172   1.00
H1       0.20555    0.09990    0.70755   1.00
H1       0.29114    -0.09680   0.79437   1.00
H1       0.29122    0.09632    0.79504   1.00
O3       0.31303    -0.03961   0.83291   1.00
O3       0.33289    0.03901    0.81460   1.00
Si1      0.29046    -0.04247   0.87478   1.00
Si1      0.37304    0.04721    0.79034   1.00
C6       0.32304    -0.07538   0.89735   1.00
C6       0.29273    0.00402    0.89670   1.00
C6       0.24315    -0.06253   0.87110   1.00
C6       0.37496    0.03307    0.74077   1.00
C6       0.37855    0.09802    0.79382   1.00
C6       0.41141    0.02523    0.81656   1.00
C6       0.33488    -0.11194   0.87252   1.00
H2       0.34958    -0.05791   0.89983   1.00
C6       0.31494    -0.09147   0.93948   1.00
H2       0.31874    0.01642    0.88314   1.00
C6       0.25904    0.03366    0.88830   1.00
C6       0.29996    0.00664    0.94172   1.00
H2       0.24818    -0.08831   0.85300   1.00
C6       0.22378    -0.07772   0.90964   1.00
C6       0.20991    -0.03849   0.85057   1.00
C6       0.36705    -0.01071   0.73060   1.00
C6       0.35266    0.05775    0.70940   1.00
H2       0.40562    0.03788    0.73358   1.00
H2       0.35514    0.10949    0.77555   1.00
C6       0.37169    0.11622    0.83517   1.00
C6       0.41734    0.11607    0.77793   1.00
H2       0.41809    0.04625    0.83955   1.00
C6       0.40137    -0.01336   0.83847   1.00
C6       0.45080    0.01756    0.79469   1.00
H2       0.34704    -0.10346   0.84430   1.00
H2       0.30980    -0.13090   0.86717   1.00
H2       0.35730    -0.12917   0.88731   1.00
H2       0.34251    -0.09608   0.95489   1.00
H2       0.29739    -0.07178   0.95708   1.00
H2       0.30004    -0.11964   0.93900   1.00
H2       0.26778    0.06328    0.89636   1.00
H2       0.25144    0.03468    0.85749   1.00
H2       0.23292    0.02648    0.90504   1.00
H2       0.32661    -0.00862   0.95014   1.00
H2       0.30373    0.03692    0.95112   1.00
H2       0.27541    -0.00550   0.95804   1.00
H2       0.22367    -0.05514   0.93213   1.00
H2       0.19359    -0.08708   0.90503   1.00
H2       0.23878    -0.10332   0.92079   1.00
H2       0.19493    -0.01902   0.87085   1.00
H2       0.22018    -0.02068   0.82657   1.00
H2       0.18790    -0.05828   0.83860   1.00
H2       0.33594    -0.01688   0.72854   1.00
H2       0.37989    -0.01809   0.70234   1.00
H2       0.37970    -0.03048   0.75199   1.00
H2       0.36109    0.04875    0.67995   1.00
H2       0.32118    0.05426    0.71146   1.00
H2       0.35943    0.08878    0.71150   1.00
H2       0.36917    0.14798    0.83309   1.00
H2       0.34456    0.10565    0.84819   1.00
H2       0.39555    0.10965    0.85521   1.00
H2       0.42392    0.10584    0.74850   1.00
H2       0.41500    0.14788    0.77640   1.00
H2       0.44202    0.10915    0.79686   1.00
H2       0.39265    -0.03656   0.81852   1.00
H2       0.42601    -0.02381   0.85579   1.00
H2       0.37741    -0.00834   0.85857   1.00
H2       0.47383    0.00956    0.81528   1.00
H2       0.44799    -0.00622   0.77363   1.00
H2       0.46093    0.04343    0.77921   1.00
C4       0.24698    0.24961    0.47916   1.00
C4       0.24755    0.24915    0.52088   1.00
C3       0.22040    0.22746    0.45636   1.00
C3       0.22405    0.22389    0.54384   1.00
C3       0.27481    0.27296    0.45877   1.00
C3       0.27282    0.27534    0.54114   1.00
C2       0.24898    0.25062    0.39488   1.00
C2       0.25102    0.24938    0.60512   1.00
C3       0.22149    0.22777    0.41538   1.00
C3       0.22546    0.22424    0.58481   1.00
C3       0.27496    0.27343    0.41742   1.00
C3       0.27501    0.27406    0.58238   1.00
H1       0.19938    0.21057    0.46885   1.00
H1       0.20540    0.20433    0.53148   1.00
C5       0.30220    0.29581    0.47980   1.00
C5       0.29603    0.30242    0.52020   1.00
H1       0.20172    0.21094    0.40045   1.00
H1       0.20755    0.20555    0.59990   1.00
H1       0.29437    0.29114    0.40320   1.00
H1       0.29504    0.29122    0.59632   1.00
O3       0.33291    0.31303    0.46039   1.00
O3       0.31460    0.33289    0.53901   1.00
Si1      0.37478    0.29046    0.45753   1.00
Si1      0.29034    0.37304    0.54721   1.00
C6       0.39735    0.32304    0.42462   1.00
C6       0.39670    0.29273    0.50402   1.00
C6       0.37110    0.24315    0.43747   1.00
C6       0.24077    0.37496    0.53307   1.00
C6       0.29382    0.37855    0.59802   1.00
C6       0.31656    0.41141    0.52523   1.00
C6       0.37252    0.33488    0.38806   1.00
H2       0.39983    0.34958    0.44209   1.00
C6       0.43948    0.31494    0.40853   1.00
H2       0.38314    0.31874    0.51642   1.00
C6       0.38830    0.25904    0.53366   1.00
C6       0.44172    0.29996    0.50664   1.00
H2       0.35300    0.24818    0.41169   1.00
C6       0.40964    0.22378    0.42228   1.00
C6       0.35057    0.20991    0.46151   1.00
C6       0.23060    0.36705    0.48929   1.00
C6       0.20940    0.35266    0.55775   1.00
H2       0.23358    0.40562    0.53788   1.00
H2       0.27555    0.35514    0.60949   1.00
C6       0.33517    0.37169    0.61622   1.00
C6       0.27793    0.41734    0.61607   1.00
H2       0.33955    0.41809    0.54625   1.00
C6       0.33847    0.40137    0.48664   1.00
C6       0.29469    0.45080    0.51756   1.00
H2       0.34430    0.34704    0.39654   1.00
H2       0.36717    0.30980    0.36910   1.00
H2       0.38731    0.35730    0.37083   1.00
H2       0.45489    0.34251    0.40392   1.00
H2       0.45708    0.29739    0.42822   1.00
H2       0.43900    0.30004    0.38036   1.00
H2       0.39636    0.26778    0.56328   1.00
H2       0.35749    0.25144    0.53468   1.00
H2       0.40504    0.23292    0.52648   1.00
H2       0.45014    0.32661    0.49138   1.00
H2       0.45112    0.30373    0.53692   1.00
H2       0.45804    0.27541    0.49450   1.00
H2       0.43213    0.22367    0.44486   1.00
H2       0.40503    0.19359    0.41292   1.00
H2       0.42079    0.23878    0.39668   1.00
H2       0.37085    0.19493    0.48098   1.00
H2       0.32657    0.22018    0.47932   1.00
H2       0.33860    0.18790    0.44172   1.00
H2       0.22854    0.33594    0.48312   1.00
H2       0.20234    0.37989    0.48191   1.00
H2       0.25199    0.37970    0.46952   1.00
H2       0.17995    0.36109    0.54875   1.00
H2       0.21146    0.32118    0.55426   1.00
H2       0.21150    0.35943    0.58878   1.00
H2       0.33309    0.36917    0.64798   1.00
H2       0.34819    0.34456    0.60565   1.00
H2       0.35521    0.39555    0.60965   1.00
H2       0.24850    0.42392    0.60584   1.00
H2       0.27640    0.41500    0.64788   1.00
H2       0.29686    0.44202    0.60915   1.00
H2       0.31852    0.39265    0.46344   1.00
H2       0.35579    0.42601    0.47619   1.00
H2       0.35857    0.37741    0.49166   1.00
H2       0.31528    0.47383    0.50956   1.00
H2       0.27363    0.44799    0.49378   1.00
H2       0.27921    0.46093    0.54343   1.00
C4       0.24698    0.75039    0.52084   1.00
C4       0.24755    0.75085    0.47912   1.00
C3       0.22040    0.77254    0.54364   1.00
C3       0.22405    0.77611    0.45616   1.00
C3       0.27481    0.72704    0.54123   1.00
C3       0.27282    0.72466    0.45886   1.00
C2       0.24898    0.74938    0.60512   1.00
C2       0.25102    0.75062    0.39488   1.00
C3       0.22149    0.77223    0.58462   1.00
C3       0.22546    0.77576    0.41519   1.00
C3       0.27496    0.72657    0.58258   1.00
C3       0.27501    0.72594    0.41762   1.00
H1       0.19938    0.78943    0.53115   1.00
H1       0.20540    0.79567    0.46852   1.00
C5       0.30220    0.70419    0.52020   1.00
C5       0.29603    0.69758    0.47980   1.00
H1       0.20172    0.78906    0.59955   1.00
H1       0.20755    0.79445    0.40010   1.00
H1       0.29437    0.70886    0.59680   1.00
H1       0.29504    0.70878    0.40368   1.00
O3       0.33291    0.68697    0.53961   1.00
O3       0.31460    0.66711    0.46099   1.00
Si1      0.37478    0.70954    0.54247   1.00
Si1      0.29034    0.62696    0.45279   1.00
C6       0.39735    0.67696    0.57538   1.00
C6       0.39670    0.70727    0.49598   1.00
C6       0.37110    0.75685    0.56253   1.00
C6       0.24077    0.62504    0.46693   1.00
C6       0.29382    0.62145    0.40198   1.00
C6       0.31656    0.58859    0.47477   1.00
C6       0.37252    0.66512    0.61194   1.00
H2       0.39983    0.65042    0.55791   1.00
C6       0.43948    0.68506    0.59147   1.00
H2       0.38314    0.68126    0.48358   1.00
C6       0.38830    0.74096    0.46634   1.00
C6       0.44172    0.70004    0.49336   1.00
H2       0.35300    0.75182    0.58831   1.00
C6       0.40964    0.77622    0.57772   1.00
C6       0.35057    0.79009    0.53849   1.00
C6       0.23060    0.63295    0.51071   1.00
C6       0.20940    0.64734    0.44225   1.00
H2       0.23358    0.59438    0.46212   1.00
H2       0.27555    0.64486    0.39051   1.00
C6       0.33517    0.62831    0.38378   1.00
C6       0.27793    0.58266    0.38393   1.00
H2       0.33955    0.58191    0.45375   1.00
C6       0.33847    0.59863    0.51336   1.00
C6       0.29469    0.54920    0.48244   1.00
H2       0.34430    0.65296    0.60346   1.00
H2       0.36717    0.69020    0.63090   1.00
H2       0.38731    0.64270    0.62917   1.00
H2       0.45489    0.65749    0.59608   1.00
H2       0.45708    0.70261    0.57178   1.00
H2       0.43900    0.69996    0.61964   1.00
H2       0.39636    0.73222    0.43672   1.00
H2       0.35749    0.74856    0.46532   1.00
H2       0.40504    0.76708    0.47352   1.00
H2       0.45014    0.67339    0.50862   1.00
H2       0.45112    0.69627    0.46308   1.00
H2       0.45804    0.72459    0.50550   1.00
H2       0.43213    0.77633    0.55514   1.00
H2       0.40503    0.80641    0.58708   1.00
H2       0.42079    0.76122    0.60332   1.00
H2       0.37085    0.80507    0.51902   1.00
H2       0.32657    0.77982    0.52068   1.00
H2       0.33860    0.81210    0.55828   1.00
H2       0.22854    0.66406    0.51688   1.00
H2       0.20234    0.62011    0.51809   1.00
H2       0.25199    0.62030    0.53048   1.00
H2       0.17995    0.63891    0.45125   1.00
H2       0.21146    0.67882    0.44574   1.00
H2       0.21150    0.64057    0.41122   1.00
H2       0.33309    0.63083    0.35202   1.00
H2       0.34819    0.65544    0.39435   1.00
H2       0.35521    0.60445    0.39035   1.00
H2       0.24850    0.57608    0.39416   1.00
H2       0.27640    0.58500    0.35212   1.00
H2       0.29686    0.55798    0.39085   1.00
H2       0.31852    0.60735    0.53656   1.00
H2       0.35579    0.57399    0.52381   1.00
H2       0.35857    0.62259    0.50834   1.00
H2       0.31528    0.52617    0.49044   1.00
H2       0.27363    0.55201    0.50622   1.00
H2       0.27921    0.53907    0.45657   1.00
C4       0.25039    1.02084    0.24698   1.00
C4       0.25085    0.97912    0.24755   1.00
C3       0.27254    1.04364    0.22040   1.00
C3       0.27611    0.95616    0.22405   1.00
C3       0.22704    1.04123    0.27481   1.00
C3       0.22466    0.95886    0.27282   1.00
C2       0.24938    1.10512    0.24898   1.00
C2       0.25062    0.89488    0.25102   1.00
C3       0.27223    1.08462    0.22149   1.00
C3       0.27576    0.91519    0.22546   1.00
C3       0.22657    1.08258    0.27496   1.00
C3       0.22594    0.91762    0.27501   1.00
H1       0.28943    1.03115    0.19938   1.00
H1       0.29567    0.96852    0.20540   1.00
C5       0.20419    1.02020    0.30220   1.00
C5       0.19758    0.97980    0.29603   1.00
H1       0.28906    1.09955    0.20172   1.00
H1       0.29445    0.90010    0.20755   1.00
H1       0.20886    1.09680    0.29437   1.00
H1       0.20878    0.90368    0.29504   1.00
O3       0.18697    1.03961    0.33291   1.00
O3       0.16711    0.96099    0.31460   1.00
Si1      0.20954    1.04247    0.37478   1.00
Si1      0.12696    0.95279    0.29034   1.00
C6       0.17696    1.07538    0.39735   1.00
C6       0.20727    0.99598    0.39670   1.00
C6       0.25685    1.06253    0.37110   1.00
C6       0.12504    0.96693    0.24077   1.00
C6       0.12145    0.90198    0.29382   1.00
C6       0.08859    0.97477    0.31656   1.00
C6       0.16512    1.11194    0.37252   1.00
H2       0.15042    1.05791    0.39983   1.00
C6       0.18506    1.09147    0.43948   1.00
H2       0.18126    0.98358    0.38314   1.00
C6       0.24096    0.96634    0.38830   1.00
C6       0.20004    0.99336    0.44172   1.00
H2       0.25182    1.08831    0.35300   1.00
C6       0.27622    1.07772    0.40964   1.00
C6       0.29009    1.03849    0.35057   1.00
C6       0.13295    1.01071    0.23060   1.00
C6       0.14734    0.94225    0.20940   1.00
H2       0.09438    0.96212    0.23358   1.00
H2       0.14486    0.89051    0.27555   1.00
C6       0.12831    0.88378    0.33517   1.00
C6       0.08266    0.88393    0.27793   1.00
H2       0.08191    0.95375    0.33955   1.00
C6       0.09863    1.01336    0.33847   1.00
C6       0.04920    0.98244    0.29469   1.00
H2       0.15296    1.10346    0.34430   1.00
H2       0.19020    1.13090    0.36717   1.00
H2       0.14270    1.12917    0.38731   1.00
H2       0.15749    1.09608    0.45489   1.00
H2       0.20261    1.07178    0.45708   1.00
H2       0.19996    1.11964    0.43900   1.00
H2       0.23222    0.93672    0.39636   1.00
H2       0.24856    0.96532    0.35749   1.00
H2       0.26708    0.97352    0.40504   1.00
H2       0.17339    1.00862    0.45014   1.00
H2       0.19627    0.96308    0.45112   1.00
H2       0.22459    1.00550    0.45804   1.00
H2       0.27633    1.05514    0.43213   1.00
H2       0.30641    1.08708    0.40503   1.00
H2       0.26122    1.10332    0.42079   1.00
H2       0.30507    1.01902    0.37085   1.00
H2       0.27982    1.02068    0.32657   1.00
H2       0.31210    1.05828    0.33860   1.00
H2       0.16406    1.01688    0.22854   1.00
H2       0.12011    1.01809    0.20234   1.00
H2       0.12030    1.03048    0.25199   1.00
H2       0.13891    0.95125    0.17995   1.00
H2       0.17882    0.94574    0.21146   1.00
H2       0.14057    0.91122    0.21150   1.00
H2       0.13083    0.85202    0.33309   1.00
H2       0.15544    0.89435    0.34819   1.00
H2       0.10445    0.89035    0.35521   1.00
H2       0.07608    0.89416    0.24850   1.00
H2       0.08500    0.85212    0.27640   1.00
H2       0.05798    0.89085    0.29686   1.00
H2       0.10735    1.03656    0.31852   1.00
H2       0.07399    1.02381    0.35579   1.00
H2       0.12259    1.00834    0.35857   1.00
H2       0.02617    0.99044    0.31528   1.00
H2       0.05201    1.00622    0.27363   1.00
H2       0.03907    0.95657    0.27921   1.00
C4       -0.02084   0.74698    0.24961   1.00
C4       0.02088    0.74755    0.24915   1.00
C3       -0.04364   0.72040    0.22746   1.00
C3       0.04384    0.72405    0.22389   1.00
C3       -0.04123   0.77481    0.27296   1.00
C3       0.04114    0.77282    0.27534   1.00
C2       -0.10512   0.74898    0.25062   1.00
C2       0.10512    0.75102    0.24938   1.00
C3       -0.08462   0.72149    0.22777   1.00
C3       0.08481    0.72546    0.22424   1.00
C3       -0.08258   0.77496    0.27343   1.00
C3       0.08238    0.77501    0.27406   1.00
H1       -0.03115   0.69938    0.21057   1.00
H1       0.03148    0.70540    0.20433   1.00
C5       -0.02020   0.80220    0.29581   1.00
C5       0.02020    0.79603    0.30242   1.00
H1       -0.09955   0.70172    0.21094   1.00
H1       0.09990    0.70755    0.20555   1.00
H1       -0.09680   0.79437    0.29114   1.00
H1       0.09632    0.79504    0.29122   1.00
O3       -0.03961   0.83291    0.31303   1.00
O3       0.03901    0.81460    0.33289   1.00
Si1      -0.04247   0.87478    0.29046   1.00
Si1      0.04721    0.79034    0.37304   1.00
C6       -0.07538   0.89735    0.32304   1.00
C6       0.00402    0.89670    0.29273   1.00
C6       -0.06253   0.87110    0.24315   1.00
C6       0.03307    0.74077    0.37496   1.00
C6       0.09802    0.79382    0.37855   1.00
C6       0.02523    0.81656    0.41141   1.00
C6       -0.11194   0.87252    0.33488   1.00
H2       -0.05791   0.89983    0.34958   1.00
C6       -0.09147   0.93948    0.31494   1.00
H2       0.01642    0.88314    0.31874   1.00
C6       0.03366    0.88830    0.25904   1.00
C6       0.00664    0.94172    0.29996   1.00
H2       -0.08831   0.85300    0.24818   1.00
C6       -0.07772   0.90964    0.22378   1.00
C6       -0.03849   0.85057    0.20991   1.00
C6       -0.01071   0.73060    0.36705   1.00
C6       0.05775    0.70940    0.35266   1.00
H2       0.03788    0.73358    0.40562   1.00
H2       0.10949    0.77555    0.35514   1.00
C6       0.11622    0.83517    0.37169   1.00
C6       0.11607    0.77793    0.41734   1.00
H2       0.04625    0.83955    0.41809   1.00
C6       -0.01336   0.83847    0.40137   1.00
C6       0.01756    0.79469    0.45080   1.00
H2       -0.10346   0.84430    0.34704   1.00
H2       -0.13090   0.86717    0.30980   1.00
H2       -0.12917   0.88731    0.35730   1.00
H2       -0.09608   0.95489    0.34251   1.00
H2       -0.07178   0.95708    0.29739   1.00
H2       -0.11964   0.93900    0.30004   1.00
H2       0.06328    0.89636    0.26778   1.00
H2       0.03468    0.85749    0.25144   1.00
H2       0.02648    0.90504    0.23292   1.00
H2       -0.00862   0.95014    0.32661   1.00
H2       0.03692    0.95112    0.30373   1.00
H2       -0.00550   0.95804    0.27541   1.00
H2       -0.05514   0.93213    0.22367   1.00
H2       -0.08708   0.90503    0.19359   1.00
H2       -0.10332   0.92079    0.23878   1.00
H2       -0.01902   0.87085    0.19493   1.00
H2       -0.02068   0.82657    0.22018   1.00
H2       -0.05828   0.83860    0.18790   1.00
H2       -0.01688   0.72854    0.33594   1.00
H2       -0.01809   0.70234    0.37989   1.00
H2       -0.03048   0.75199    0.37970   1.00
H2       0.04875    0.67995    0.36109   1.00
H2       0.05426    0.71146    0.32118   1.00
H2       0.08878    0.71150    0.35943   1.00
H2       0.14798    0.83309    0.36917   1.00
H2       0.10565    0.84819    0.34456   1.00
H2       0.10965    0.85521    0.39555   1.00
H2       0.10584    0.74850    0.42392   1.00
H2       0.14788    0.77640    0.41500   1.00
H2       0.10915    0.79686    0.44202   1.00
H2       -0.03656   0.81852    0.39265   1.00
H2       -0.02381   0.85579    0.42601   1.00
H2       -0.00834   0.85857    0.37741   1.00
H2       0.00956    0.81528    0.47383   1.00
H2       -0.00622   0.77363    0.44799   1.00
H2       0.04343    0.77921    0.46093   1.00
C4       0.52084    0.74698    0.25039   1.00
C4       0.47912    0.74755    0.25085   1.00
C3       0.54364    0.72040    0.27254   1.00
C3       0.45616    0.72405    0.27611   1.00
C3       0.54123    0.77481    0.22704   1.00
C3       0.45886    0.77282    0.22466   1.00
C2       0.60512    0.74898    0.24938   1.00
C2       0.39488    0.75102    0.25062   1.00
C3       0.58462    0.72149    0.27223   1.00
C3       0.41519    0.72546    0.27576   1.00
C3       0.58258    0.77496    0.22657   1.00
C3       0.41762    0.77501    0.22594   1.00
H1       0.53115    0.69938    0.28943   1.00
H1       0.46852    0.70540    0.29567   1.00
C5       0.52020    0.80220    0.20419   1.00
C5       0.47980    0.79603    0.19758   1.00
H1       0.59955    0.70172    0.28906   1.00
H1       0.40010    0.70755    0.29445   1.00
H1       0.59680    0.79437    0.20886   1.00
H1       0.40368    0.79504    0.20878   1.00
O3       0.53961    0.83291    0.18697   1.00
O3       0.46099    0.81460    0.16711   1.00
Si1      0.54247    0.87478    0.20954   1.00
Si1      0.45279    0.79034    0.12696   1.00
C6       0.57538    0.89735    0.17696   1.00
C6       0.49598    0.89670    0.20727   1.00
C6       0.56253    0.87110    0.25685   1.00
C6       0.46693    0.74077    0.12504   1.00
C6       0.40198    0.79382    0.12145   1.00
C6       0.47477    0.81656    0.08859   1.00
C6       0.61194    0.87252    0.16512   1.00
H2       0.55791    0.89983    0.15042   1.00
C6       0.59147    0.93948    0.18506   1.00
H2       0.48358    0.88314    0.18126   1.00
C6       0.46634    0.88830    0.24096   1.00
C6       0.49336    0.94172    0.20004   1.00
H2       0.58831    0.85300    0.25182   1.00
C6       0.57772    0.90964    0.27622   1.00
C6       0.53849    0.85057    0.29009   1.00
C6       0.51071    0.73060    0.13295   1.00
C6       0.44225    0.70940    0.14734   1.00
H2       0.46212    0.73358    0.09438   1.00
H2       0.39051    0.77555    0.14486   1.00
C6       0.38378    0.83517    0.12831   1.00
C6       0.38393    0.77793    0.08266   1.00
H2       0.45375    0.83955    0.08191   1.00
C6       0.51336    0.83847    0.09863   1.00
C6       0.48244    0.79469    0.04920   1.00
H2       0.60346    0.84430    0.15296   1.00
H2       0.63090    0.86717    0.19020   1.00
H2       0.62917    0.88731    0.14270   1.00
H2       0.59608    0.95489    0.15749   1.00
H2       0.57178    0.95708    0.20261   1.00
H2       0.61964    0.93900    0.19996   1.00
H2       0.43672    0.89636    0.23222   1.00
H2       0.46532    0.85749    0.24856   1.00
H2       0.47352    0.90504    0.26708   1.00
H2       0.50862    0.95014    0.17339   1.00
H2       0.46308    0.95112    0.19627   1.00
H2       0.50550    0.95804    0.22459   1.00
H2       0.55514    0.93213    0.27633   1.00
H2       0.58708    0.90503    0.30641   1.00
H2       0.60332    0.92079    0.26122   1.00
H2       0.51902    0.87085    0.30507   1.00
H2       0.52068    0.82657    0.27982   1.00
H2       0.55828    0.83860    0.31210   1.00
H2       0.51688    0.72854    0.16406   1.00
H2       0.51809    0.70234    0.12011   1.00
H2       0.53048    0.75199    0.12030   1.00
H2       0.45125    0.67995    0.13891   1.00
H2       0.44574    0.71146    0.17882   1.00
H2       0.41122    0.71150    0.14057   1.00
H2       0.35202    0.83309    0.13083   1.00
H2       0.39435    0.84819    0.15544   1.00
H2       0.39035    0.85521    0.10445   1.00
H2       0.39416    0.74850    0.07608   1.00
H2       0.35212    0.77640    0.08500   1.00
H2       0.39085    0.79686    0.05798   1.00
H2       0.53656    0.81852    0.10735   1.00
H2       0.52381    0.85579    0.07399   1.00
H2       0.50834    0.85857    0.12259   1.00
H2       0.49044    0.81528    0.02617   1.00
H2       0.50622    0.77363    0.05201   1.00
H2       0.45657    0.77921    0.03907   1.00
C4       0.24961    0.47916    0.24698   1.00
C4       0.24915    0.52088    0.24755   1.00
C3       0.22746    0.45636    0.22040   1.00
C3       0.22389    0.54384    0.22405   1.00
C3       0.27296    0.45877    0.27481   1.00
C3       0.27534    0.54114    0.27282   1.00
C2       0.25062    0.39488    0.24898   1.00
C2       0.24938    0.60512    0.25102   1.00
C3       0.22777    0.41538    0.22149   1.00
C3       0.22424    0.58481    0.22546   1.00
C3       0.27343    0.41742    0.27496   1.00
C3       0.27406    0.58238    0.27501   1.00
H1       0.21057    0.46885    0.19938   1.00
H1       0.20433    0.53148    0.20540   1.00
C5       0.29581    0.47980    0.30220   1.00
C5       0.30242    0.52020    0.29603   1.00
H1       0.21094    0.40045    0.20172   1.00
H1       0.20555    0.59990    0.20755   1.00
H1       0.29114    0.40320    0.29437   1.00
H1       0.29122    0.59632    0.29504   1.00
O3       0.31303    0.46039    0.33291   1.00
O3       0.33289    0.53901    0.31460   1.00
Si1      0.29046    0.45753    0.37478   1.00
Si1      0.37304    0.54721    0.29034   1.00
C6       0.32304    0.42462    0.39735   1.00
C6       0.29273    0.50402    0.39670   1.00
C6       0.24315    0.43747    0.37110   1.00
C6       0.37496    0.53307    0.24077   1.00
C6       0.37855    0.59802    0.29382   1.00
C6       0.41141    0.52523    0.31656   1.00
C6       0.33488    0.38806    0.37252   1.00
H2       0.34958    0.44209    0.39983   1.00
C6       0.31494    0.40853    0.43948   1.00
H2       0.31874    0.51642    0.38314   1.00
C6       0.25904    0.53366    0.38830   1.00
C6       0.29996    0.50664    0.44172   1.00
H2       0.24818    0.41169    0.35300   1.00
C6       0.22378    0.42228    0.40964   1.00
C6       0.20991    0.46151    0.35057   1.00
C6       0.36705    0.48929    0.23060   1.00
C6       0.35266    0.55775    0.20940   1.00
H2       0.40562    0.53788    0.23358   1.00
H2       0.35514    0.60949    0.27555   1.00
C6       0.37169    0.61622    0.33517   1.00
C6       0.41734    0.61607    0.27793   1.00
H2       0.41809    0.54625    0.33955   1.00
C6       0.40137    0.48664    0.33847   1.00
C6       0.45080    0.51756    0.29469   1.00
H2       0.34704    0.39654    0.34430   1.00
H2       0.30980    0.36910    0.36717   1.00
H2       0.35730    0.37083    0.38731   1.00
H2       0.34251    0.40392    0.45489   1.00
H2       0.29739    0.42822    0.45708   1.00
H2       0.30004    0.38036    0.43900   1.00
H2       0.26778    0.56328    0.39636   1.00
H2       0.25144    0.53468    0.35749   1.00
H2       0.23292    0.52648    0.40504   1.00
H2       0.32661    0.49138    0.45014   1.00
H2       0.30373    0.53692    0.45112   1.00
H2       0.27541    0.49450    0.45804   1.00
H2       0.22367    0.44486    0.43213   1.00
H2       0.19359    0.41292    0.40503   1.00
H2       0.23878    0.39668    0.42079   1.00
H2       0.19493    0.48098    0.37085   1.00
H2       0.22018    0.47932    0.32657   1.00
H2       0.18790    0.44172    0.33860   1.00
H2       0.33594    0.48312    0.22854   1.00
H2       0.37989    0.48191    0.20234   1.00
H2       0.37970    0.46952    0.25199   1.00
H2       0.36109    0.54875    0.17995   1.00
H2       0.32118    0.55426    0.21146   1.00
H2       0.35943    0.58878    0.21150   1.00
H2       0.36917    0.64798    0.33309   1.00
H2       0.34456    0.60565    0.34819   1.00
H2       0.39555    0.60965    0.35521   1.00
H2       0.42392    0.60584    0.24850   1.00
H2       0.41500    0.64788    0.27640   1.00
H2       0.44202    0.60915    0.29686   1.00
H2       0.39265    0.46344    0.31852   1.00
H2       0.42601    0.47619    0.35579   1.00
H2       0.37741    0.49166    0.35857   1.00
H2       0.47383    0.50956    0.31528   1.00
H2       0.44799    0.49378    0.27363   1.00
H2       0.46093    0.54343    0.27921   1.00
C4       0.24698    0.74961    -0.02084   1.00
C4       0.24755    0.74915    0.02088   1.00
C3       0.22040    0.72746    -0.04364   1.00
C3       0.22405    0.72389    0.04384   1.00
C3       0.27481    0.77296    -0.04123   1.00
C3       0.27282    0.77534    0.04114   1.00
C2       0.24898    0.75062    -0.10512   1.00
C2       0.25102    0.74938    0.10512   1.00
C3       0.22149    0.72777    -0.08462   1.00
C3       0.22546    0.72424    0.08481   1.00
C3       0.27496    0.77343    -0.08258   1.00
C3       0.27501    0.77406    0.08238   1.00
H1       0.19938    0.71057    -0.03115   1.00
H1       0.20540    0.70433    0.03148   1.00
C5       0.30220    0.79581    -0.02020   1.00
C5       0.29603    0.80242    0.02020   1.00
H1       0.20172    0.71094    -0.09955   1.00
H1       0.20755    0.70555    0.09990   1.00
H1       0.29437    0.79114    -0.09680   1.00
H1       0.29504    0.79122    0.09632   1.00
O3       0.33291    0.81303    -0.03961   1.00
O3       0.31460    0.83289    0.03901   1.00
Si1      0.37478    0.79046    -0.04247   1.00
Si1      0.29034    0.87304    0.04721   1.00
C6       0.39735    0.82304    -0.07538   1.00
C6       0.39670    0.79273    0.00402   1.00
C6       0.37110    0.74315    -0.06253   1.00
C6       0.24077    0.87496    0.03307   1.00
C6       0.29382    0.87855    0.09802   1.00
C6       0.31656    0.91141    0.02523   1.00
C6       0.37252    0.83488    -0.11194   1.00
H2       0.39983    0.84958    -0.05791   1.00
C6       0.43948    0.81494    -0.09147   1.00
H2       0.38314    0.81874    0.01642   1.00
C6       0.38830    0.75904    0.03366   1.00
C6       0.44172    0.79996    0.00664   1.00
H2       0.35300    0.74818    -0.08831   1.00
C6       0.40964    0.72378    -0.07772   1.00
C6       0.35057    0.70991    -0.03849   1.00
C6       0.23060    0.86705    -0.01071   1.00
C6       0.20940    0.85266    0.05775   1.00
H2       0.23358    0.90562    0.03788   1.00
H2       0.27555    0.85514    0.10949   1.00
C6       0.33517    0.87169    0.11622   1.00
C6       0.27793    0.91734    0.11607   1.00
H2       0.33955    0.91809    0.04625   1.00
C6       0.33847    0.90137    -0.01336   1.00
C6       0.29469    0.95080    0.01756   1.00
H2       0.34430    0.84704    -0.10346   1.00
H2       0.36717    0.80980    -0.13090   1.00
H2       0.38731    0.85730    -0.12917   1.00
H2       0.45489    0.84251    -0.09608   1.00
H2       0.45708    0.79739    -0.07178   1.00
H2       0.43900    0.80004    -0.11964   1.00
H2       0.39636    0.76778    0.06328   1.00
H2       0.35749    0.75144    0.03468   1.00
H2       0.40504    0.73292    0.02648   1.00
H2       0.45014    0.82661    -0.00862   1.00
H2       0.45112    0.80373    0.03692   1.00
H2       0.45804    0.77541    -0.00550   1.00
H2       0.43213    0.72367    -0.05514   1.00
H2       0.40503    0.69359    -0.08708   1.00
H2       0.42079    0.73878    -0.10332   1.00
H2       0.37085    0.69493    -0.01902   1.00
H2       0.32657    0.72018    -0.02068   1.00
H2       0.33860    0.68790    -0.05828   1.00
H2       0.22854    0.83594    -0.01688   1.00
H2       0.20234    0.87989    -0.01809   1.00
H2       0.25199    0.87970    -0.03048   1.00
H2       0.17995    0.86109    0.04875   1.00
H2       0.21146    0.82118    0.05426   1.00
H2       0.21150    0.85943    0.08878   1.00
H2       0.33309    0.86917    0.14798   1.00
H2       0.34819    0.84456    0.10565   1.00
H2       0.35521    0.89555    0.10965   1.00
H2       0.24850    0.92392    0.10584   1.00
H2       0.27640    0.91500    0.14788   1.00
H2       0.29686    0.94202    0.10915   1.00
H2       0.31852    0.89265    -0.03656   1.00
H2       0.35579    0.92601    -0.02381   1.00
H2       0.35857    0.87741    -0.00834   1.00
H2       0.31528    0.97383    0.00956   1.00
H2       0.27363    0.94799    -0.00622   1.00
H2       0.27921    0.96093    0.04343   1.00
C4       0.74698    0.25039    0.52084   1.00
C4       0.74755    0.25085    0.47912   1.00
C3       0.72040    0.27254    0.54364   1.00
C3       0.72405    0.27611    0.45616   1.00
C3       0.77481    0.22704    0.54123   1.00
C3       0.77282    0.22466    0.45886   1.00
C2       0.74898    0.24938    0.60512   1.00
C2       0.75102    0.25062    0.39488   1.00
C3       0.72149    0.27223    0.58462   1.00
C3       0.72546    0.27576    0.41519   1.00
C3       0.77496    0.22657    0.58258   1.00
C3       0.77501    0.22594    0.41762   1.00
H1       0.69938    0.28943    0.53115   1.00
H1       0.70540    0.29567    0.46852   1.00
C5       0.80220    0.20419    0.52020   1.00
C5       0.79603    0.19758    0.47980   1.00
H1       0.70172    0.28906    0.59955   1.00
H1       0.70755    0.29445    0.40010   1.00
H1       0.79437    0.20886    0.59680   1.00
H1       0.79504    0.20878    0.40368   1.00
O3       0.83291    0.18697    0.53961   1.00
O3       0.81460    0.16711    0.46099   1.00
Si1      0.87478    0.20954    0.54247   1.00
Si1      0.79034    0.12696    0.45279   1.00
C6       0.89735    0.17696    0.57538   1.00
C6       0.89670    0.20727    0.49598   1.00
C6       0.87110    0.25685    0.56253   1.00
C6       0.74077    0.12504    0.46693   1.00
C6       0.79382    0.12145    0.40198   1.00
C6       0.81656    0.08859    0.47477   1.00
C6       0.87252    0.16512    0.61194   1.00
H2       0.89983    0.15042    0.55791   1.00
C6       0.93948    0.18506    0.59147   1.00
H2       0.88314    0.18126    0.48358   1.00
C6       0.88830    0.24096    0.46634   1.00
C6       0.94172    0.20004    0.49336   1.00
H2       0.85300    0.25182    0.58831   1.00
C6       0.90964    0.27622    0.57772   1.00
C6       0.85057    0.29009    0.53849   1.00
C6       0.73060    0.13295    0.51071   1.00
C6       0.70940    0.14734    0.44225   1.00
H2       0.73358    0.09438    0.46212   1.00
H2       0.77555    0.14486    0.39051   1.00
C6       0.83517    0.12831    0.38378   1.00
C6       0.77793    0.08266    0.38393   1.00
H2       0.83955    0.08191    0.45375   1.00
C6       0.83847    0.09863    0.51336   1.00
C6       0.79469    0.04920    0.48244   1.00
H2       0.84430    0.15296    0.60346   1.00
H2       0.86717    0.19020    0.63090   1.00
H2       0.88731    0.14270    0.62917   1.00
H2       0.95489    0.15749    0.59608   1.00
H2       0.95708    0.20261    0.57178   1.00
H2       0.93900    0.19996    0.61964   1.00
H2       0.89636    0.23222    0.43672   1.00
H2       0.85749    0.24856    0.46532   1.00
H2       0.90504    0.26708    0.47352   1.00
H2       0.95014    0.17339    0.50862   1.00
H2       0.95112    0.19627    0.46308   1.00
H2       0.95804    0.22459    0.50550   1.00
H2       0.93213    0.27633    0.55514   1.00
H2       0.90503    0.30641    0.58708   1.00
H2       0.92079    0.26122    0.60332   1.00
H2       0.87085    0.30507    0.51902   1.00
H2       0.82657    0.27982    0.52068   1.00
H2       0.83860    0.31210    0.55828   1.00
H2       0.72854    0.16406    0.51688   1.00
H2       0.70234    0.12011    0.51809   1.00
H2       0.75199    0.12030    0.53048   1.00
H2       0.67995    0.13891    0.45125   1.00
H2       0.71146    0.17882    0.44574   1.00
H2       0.71150    0.14057    0.41122   1.00
H2       0.83309    0.13083    0.35202   1.00
H2       0.84819    0.15544    0.39435   1.00
H2       0.85521    0.10445    0.39035   1.00
H2       0.74850    0.07608    0.39416   1.00
H2       0.77640    0.08500    0.35212   1.00
H2       0.79686    0.05798    0.39085   1.00
H2       0.81852    0.10735    0.53656   1.00
H2       0.85579    0.07399    0.52381   1.00
H2       0.85857    0.12259    0.50834   1.00
H2       0.81528    0.02617    0.49044   1.00
H2       0.77363    0.05201    0.50622   1.00
H2       0.77921    0.03907    0.45657   1.00
C4       0.75039    0.52084    0.24698   1.00
C4       0.75085    0.47912    0.24755   1.00
C3       0.77254    0.54364    0.22040   1.00
C3       0.77611    0.45616    0.22405   1.00
C3       0.72704    0.54123    0.27481   1.00
C3       0.72466    0.45886    0.27282   1.00
C2       0.74938    0.60512    0.24898   1.00
C2       0.75062    0.39488    0.25102   1.00
C3       0.77223    0.58462    0.22149   1.00
C3       0.77576    0.41519    0.22546   1.00
C3       0.72657    0.58258    0.27496   1.00
C3       0.72594    0.41762    0.27501   1.00
H1       0.78943    0.53115    0.19938   1.00
H1       0.79567    0.46852    0.20540   1.00
C5       0.70419    0.52020    0.30220   1.00
C5       0.69758    0.47980    0.29603   1.00
H1       0.78906    0.59955    0.20172   1.00
H1       0.79445    0.40010    0.20755   1.00
H1       0.70886    0.59680    0.29437   1.00
H1       0.70878    0.40368    0.29504   1.00
O3       0.68697    0.53961    0.33291   1.00
O3       0.66711    0.46099    0.31460   1.00
Si1      0.70954    0.54247    0.37478   1.00
Si1      0.62696    0.45279    0.29034   1.00
C6       0.67696    0.57538    0.39735   1.00
C6       0.70727    0.49598    0.39670   1.00
C6       0.75685    0.56253    0.37110   1.00
C6       0.62504    0.46693    0.24077   1.00
C6       0.62145    0.40198    0.29382   1.00
C6       0.58859    0.47477    0.31656   1.00
C6       0.66512    0.61194    0.37252   1.00
H2       0.65042    0.55791    0.39983   1.00
C6       0.68506    0.59147    0.43948   1.00
H2       0.68126    0.48358    0.38314   1.00
C6       0.74096    0.46634    0.38830   1.00
C6       0.70004    0.49336    0.44172   1.00
H2       0.75182    0.58831    0.35300   1.00
C6       0.77622    0.57772    0.40964   1.00
C6       0.79009    0.53849    0.35057   1.00
C6       0.63295    0.51071    0.23060   1.00
C6       0.64734    0.44225    0.20940   1.00
H2       0.59438    0.46212    0.23358   1.00
H2       0.64486    0.39051    0.27555   1.00
C6       0.62831    0.38378    0.33517   1.00
C6       0.58266    0.38393    0.27793   1.00
H2       0.58191    0.45375    0.33955   1.00
C6       0.59863    0.51336    0.33847   1.00
C6       0.54920    0.48244    0.29469   1.00
H2       0.65296    0.60346    0.34430   1.00
H2       0.69020    0.63090    0.36717   1.00
H2       0.64270    0.62917    0.38731   1.00
H2       0.65749    0.59608    0.45489   1.00
H2       0.70261    0.57178    0.45708   1.00
H2       0.69996    0.61964    0.43900   1.00
H2       0.73222    0.43672    0.39636   1.00
H2       0.74856    0.46532    0.35749   1.00
H2       0.76708    0.47352    0.40504   1.00
H2       0.67339    0.50862    0.45014   1.00
H2       0.69627    0.46308    0.45112   1.00
H2       0.72459    0.50550    0.45804   1.00
H2       0.77633    0.55514    0.43213   1.00
H2       0.80641    0.58708    0.40503   1.00
H2       0.76122    0.60332    0.42079   1.00
H2       0.80507    0.51902    0.37085   1.00
H2       0.77982    0.52068    0.32657   1.00
H2       0.81210    0.55828    0.33860   1.00
H2       0.66406    0.51688    0.22854   1.00
H2       0.62011    0.51809    0.20234   1.00
H2       0.62030    0.53048    0.25199   1.00
H2       0.63891    0.45125    0.17995   1.00
H2       0.67882    0.44574    0.21146   1.00
H2       0.64057    0.41122    0.21150   1.00
H2       0.63083    0.35202    0.33309   1.00
H2       0.65544    0.39435    0.34819   1.00
H2       0.60445    0.39035    0.35521   1.00
H2       0.57608    0.39416    0.24850   1.00
H2       0.58500    0.35212    0.27640   1.00
H2       0.55798    0.39085    0.29686   1.00
H2       0.60735    0.53656    0.31852   1.00
H2       0.57399    0.52381    0.35579   1.00
H2       0.62259    0.50834    0.35857   1.00
H2       0.52617    0.49044    0.31528   1.00
H2       0.55201    0.50622    0.27363   1.00
H2       0.53907    0.45657    0.27921   1.00
C4       0.47916    0.24698    0.24961   1.00
C4       0.52088    0.24755    0.24915   1.00
C3       0.45636    0.22040    0.22746   1.00
C3       0.54384    0.22405    0.22389   1.00
C3       0.45877    0.27481    0.27296   1.00
C3       0.54114    0.27282    0.27534   1.00
C2       0.39488    0.24898    0.25062   1.00
C2       0.60512    0.25102    0.24938   1.00
C3       0.41538    0.22149    0.22777   1.00
C3       0.58481    0.22546    0.22424   1.00
C3       0.41742    0.27496    0.27343   1.00
C3       0.58238    0.27501    0.27406   1.00
H1       0.46885    0.19938    0.21057   1.00
H1       0.53148    0.20540    0.20433   1.00
C5       0.47980    0.30220    0.29581   1.00
C5       0.52020    0.29603    0.30242   1.00
H1       0.40045    0.20172    0.21094   1.00
H1       0.59990    0.20755    0.20555   1.00
H1       0.40320    0.29437    0.29114   1.00
H1       0.59632    0.29504    0.29122   1.00
O3       0.46039    0.33291    0.31303   1.00
O3       0.53901    0.31460    0.33289   1.00
Si1      0.45753    0.37478    0.29046   1.00
Si1      0.54721    0.29034    0.37304   1.00
C6       0.42462    0.39735    0.32304   1.00
C6       0.50402    0.39670    0.29273   1.00
C6       0.43747    0.37110    0.24315   1.00
C6       0.53307    0.24077    0.37496   1.00
C6       0.59802    0.29382    0.37855   1.00
C6       0.52523    0.31656    0.41141   1.00
C6       0.38806    0.37252    0.33488   1.00
H2       0.44209    0.39983    0.34958   1.00
C6       0.40853    0.43948    0.31494   1.00
H2       0.51642    0.38314    0.31874   1.00
C6       0.53366    0.38830    0.25904   1.00
C6       0.50664    0.44172    0.29996   1.00
H2       0.41169    0.35300    0.24818   1.00
C6       0.42228    0.40964    0.22378   1.00
C6       0.46151    0.35057    0.20991   1.00
C6       0.48929    0.23060    0.36705   1.00
C6       0.55775    0.20940    0.35266   1.00
H2       0.53788    0.23358    0.40562   1.00
H2       0.60949    0.27555    0.35514   1.00
C6       0.61622    0.33517    0.37169   1.00
C6       0.61607    0.27793    0.41734   1.00
H2       0.54625    0.33955    0.41809   1.00
C6       0.48664    0.33847    0.40137   1.00
C6       0.51756    0.29469    0.45080   1.00
H2       0.39654    0.34430    0.34704   1.00
H2       0.36910    0.36717    0.30980   1.00
H2       0.37083    0.38731    0.35730   1.00
H2       0.40392    0.45489    0.34251   1.00
H2       0.42822    0.45708    0.29739   1.00
H2       0.38036    0.43900    0.30004   1.00
H2       0.56328    0.39636    0.26778   1.00
H2       0.53468    0.35749    0.25144   1.00
H2       0.52648    0.40504    0.23292   1.00
H2       0.49138    0.45014    0.32661   1.00
H2       0.53692    0.45112    0.30373   1.00
H2       0.49450    0.45804    0.27541   1.00
H2       0.44486    0.43213    0.22367   1.00
H2       0.41292    0.40503    0.19359   1.00
H2       0.39668    0.42079    0.23878   1.00
H2       0.48098    0.37085    0.19493   1.00
H2       0.47932    0.32657    0.22018   1.00
H2       0.44172    0.33860    0.18790   1.00
H2       0.48312    0.22854    0.33594   1.00
H2       0.48191    0.20234    0.37989   1.00
H2       0.46952    0.25199    0.37970   1.00
H2       0.54875    0.17995    0.36109   1.00
H2       0.55426    0.21146    0.32118   1.00
H2       0.58878    0.21150    0.35943   1.00
H2       0.64798    0.33309    0.36917   1.00
H2       0.60565    0.34819    0.34456   1.00
H2       0.60965    0.35521    0.39555   1.00
H2       0.60584    0.24850    0.42392   1.00
H2       0.64788    0.27640    0.41500   1.00
H2       0.60915    0.29686    0.44202   1.00
H2       0.46344    0.31852    0.39265   1.00
H2       0.47619    0.35579    0.42601   1.00
H2       0.49166    0.35857    0.37741   1.00
H2       0.50956    0.31528    0.47383   1.00
H2       0.49378    0.27363    0.44799   1.00
H2       0.54343    0.27921    0.46093   1.00
C4       1.02084    0.24698    0.25039   1.00
C4       0.97912    0.24755    0.25085   1.00
C3       1.04364    0.22040    0.27254   1.00
C3       0.95616    0.22405    0.27611   1.00
C3       1.04123    0.27481    0.22704   1.00
C3       0.95886    0.27282    0.22466   1.00
C2       1.10512    0.24898    0.24938   1.00
C2       0.89488    0.25102    0.25062   1.00
C3       1.08462    0.22149    0.27223   1.00
C3       0.91519    0.22546    0.27576   1.00
C3       1.08258    0.27496    0.22657   1.00
C3       0.91762    0.27501    0.22594   1.00
H1       1.03115    0.19938    0.28943   1.00
H1       0.96852    0.20540    0.29567   1.00
C5       1.02020    0.30220    0.20419   1.00
C5       0.97980    0.29603    0.19758   1.00
H1       1.09955    0.20172    0.28906   1.00
H1       0.90010    0.20755    0.29445   1.00
H1       1.09680    0.29437    0.20886   1.00
H1       0.90368    0.29504    0.20878   1.00
O3       1.03961    0.33291    0.18697   1.00
O3       0.96099    0.31460    0.16711   1.00
Si1      1.04247    0.37478    0.20954   1.00
Si1      0.95279    0.29034    0.12696   1.00
C6       1.07538    0.39735    0.17696   1.00
C6       0.99598    0.39670    0.20727   1.00
C6       1.06253    0.37110    0.25685   1.00
C6       0.96693    0.24077    0.12504   1.00
C6       0.90198    0.29382    0.12145   1.00
C6       0.97477    0.31656    0.08859   1.00
C6       1.11194    0.37252    0.16512   1.00
H2       1.05791    0.39983    0.15042   1.00
C6       1.09147    0.43948    0.18506   1.00
H2       0.98358    0.38314    0.18126   1.00
C6       0.96634    0.38830    0.24096   1.00
C6       0.99336    0.44172    0.20004   1.00
H2       1.08831    0.35300    0.25182   1.00
C6       1.07772    0.40964    0.27622   1.00
C6       1.03849    0.35057    0.29009   1.00
C6       1.01071    0.23060    0.13295   1.00
C6       0.94225    0.20940    0.14734   1.00
H2       0.96212    0.23358    0.09438   1.00
H2       0.89051    0.27555    0.14486   1.00
C6       0.88378    0.33517    0.12831   1.00
C6       0.88393    0.27793    0.08266   1.00
H2       0.95375    0.33955    0.08191   1.00
C6       1.01336    0.33847    0.09863   1.00
C6       0.98244    0.29469    0.04920   1.00
H2       1.10346    0.34430    0.15296   1.00
H2       1.13090    0.36717    0.19020   1.00
H2       1.12917    0.38731    0.14270   1.00
H2       1.09608    0.45489    0.15749   1.00
H2       1.07178    0.45708    0.20261   1.00
H2       1.11964    0.43900    0.19996   1.00
H2       0.93672    0.39636    0.23222   1.00
H2       0.96532    0.35749    0.24856   1.00
H2       0.97352    0.40504    0.26708   1.00
H2       1.00862    0.45014    0.17339   1.00
H2       0.96308    0.45112    0.19627   1.00
H2       1.00550    0.45804    0.22459   1.00
H2       1.05514    0.43213    0.27633   1.00
H2       1.08708    0.40503    0.30641   1.00
H2       1.10332    0.42079    0.26122   1.00
H2       1.01902    0.37085    0.30507   1.00
H2       1.02068    0.32657    0.27982   1.00
H2       1.05828    0.33860    0.31210   1.00
H2       1.01688    0.22854    0.16406   1.00
H2       1.01809    0.20234    0.12011   1.00
H2       1.03048    0.25199    0.12030   1.00
H2       0.95125    0.17995    0.13891   1.00
H2       0.94574    0.21146    0.17882   1.00
H2       0.91122    0.21150    0.14057   1.00
H2       0.85202    0.33309    0.13083   1.00
H2       0.89435    0.34819    0.15544   1.00
H2       0.89035    0.35521    0.10445   1.00
H2       0.89416    0.24850    0.07608   1.00
H2       0.85212    0.27640    0.08500   1.00
H2       0.89085    0.29686    0.05798   1.00
H2       1.03656    0.31852    0.10735   1.00
H2       1.02381    0.35579    0.07399   1.00
H2       1.00834    0.35857    0.12259   1.00
H2       0.99044    0.31528    0.02617   1.00
H2       1.00622    0.27363    0.05201   1.00
H2       0.95657    0.27921    0.03907   1.00
C4       0.74961    -0.02084   0.24698   1.00
C4       0.74915    0.02088    0.24755   1.00
C3       0.72746    -0.04364   0.22040   1.00
C3       0.72389    0.04384    0.22405   1.00
C3       0.77296    -0.04123   0.27481   1.00
C3       0.77534    0.04114    0.27282   1.00
C2       0.75062    -0.10512   0.24898   1.00
C2       0.74938    0.10512    0.25102   1.00
C3       0.72777    -0.08462   0.22149   1.00
C3       0.72424    0.08481    0.22546   1.00
C3       0.77343    -0.08258   0.27496   1.00
C3       0.77406    0.08238    0.27501   1.00
H1       0.71057    -0.03115   0.19938   1.00
H1       0.70433    0.03148    0.20540   1.00
C5       0.79581    -0.02020   0.30220   1.00
C5       0.80242    0.02020    0.29603   1.00
H1       0.71094    -0.09955   0.20172   1.00
H1       0.70555    0.09990    0.20755   1.00
H1       0.79114    -0.09680   0.29437   1.00
H1       0.79122    0.09632    0.29504   1.00
O3       0.81303    -0.03961   0.33291   1.00
O3       0.83289    0.03901    0.31460   1.00
Si1      0.79046    -0.04247   0.37478   1.00
Si1      0.87304    0.04721    0.29034   1.00
C6       0.82304    -0.07538   0.39735   1.00
C6       0.79273    0.00402    0.39670   1.00
C6       0.74315    -0.06253   0.37110   1.00
C6       0.87496    0.03307    0.24077   1.00
C6       0.87855    0.09802    0.29382   1.00
C6       0.91141    0.02523    0.31656   1.00
C6       0.83488    -0.11194   0.37252   1.00
H2       0.84958    -0.05791   0.39983   1.00
C6       0.81494    -0.09147   0.43948   1.00
H2       0.81874    0.01642    0.38314   1.00
C6       0.75904    0.03366    0.38830   1.00
C6       0.79996    0.00664    0.44172   1.00
H2       0.74818    -0.08831   0.35300   1.00
C6       0.72378    -0.07772   0.40964   1.00
C6       0.70991    -0.03849   0.35057   1.00
C6       0.86705    -0.01071   0.23060   1.00
C6       0.85266    0.05775    0.20940   1.00
H2       0.90562    0.03788    0.23358   1.00
H2       0.85514    0.10949    0.27555   1.00
C6       0.87169    0.11622    0.33517   1.00
C6       0.91734    0.11607    0.27793   1.00
H2       0.91809    0.04625    0.33955   1.00
C6       0.90137    -0.01336   0.33847   1.00
C6       0.95080    0.01756    0.29469   1.00
H2       0.84704    -0.10346   0.34430   1.00
H2       0.80980    -0.13090   0.36717   1.00
H2       0.85730    -0.12917   0.38731   1.00
H2       0.84251    -0.09608   0.45489   1.00
H2       0.79739    -0.07178   0.45708   1.00
H2       0.80004    -0.11964   0.43900   1.00
H2       0.76778    0.06328    0.39636   1.00
H2       0.75144    0.03468    0.35749   1.00
H2       0.73292    0.02648    0.40504   1.00
H2       0.82661    -0.00862   0.45014   1.00
H2       0.80373    0.03692    0.45112   1.00
H2       0.77541    -0.00550   0.45804   1.00
H2       0.72367    -0.05514   0.43213   1.00
H2       0.69359    -0.08708   0.40503   1.00
H2       0.73878    -0.10332   0.42079   1.00
H2       0.69493    -0.01902   0.37085   1.00
H2       0.72018    -0.02068   0.32657   1.00
H2       0.68790    -0.05828   0.33860   1.00
H2       0.83594    -0.01688   0.22854   1.00
H2       0.87989    -0.01809   0.20234   1.00
H2       0.87970    -0.03048   0.25199   1.00
H2       0.86109    0.04875    0.17995   1.00
H2       0.82118    0.05426    0.21146   1.00
H2       0.85943    0.08878    0.21150   1.00
H2       0.86917    0.14798    0.33309   1.00
H2       0.84456    0.10565    0.34819   1.00
H2       0.89555    0.10965    0.35521   1.00
H2       0.92392    0.10584    0.24850   1.00
H2       0.91500    0.14788    0.27640   1.00
H2       0.94202    0.10915    0.29686   1.00
H2       0.89265    -0.03656   0.31852   1.00
H2       0.92601    -0.02381   0.35579   1.00
H2       0.87741    -0.00834   0.35857   1.00
H2       0.97383    0.00956    0.31528   1.00
H2       0.94799    -0.00622   0.27363   1.00
H2       0.96093    0.04343    0.27921   1.00
C4       0.74698    0.24961    -0.02084   1.00
C4       0.74755    0.24915    0.02088   1.00
C3       0.72040    0.22746    -0.04364   1.00
C3       0.72405    0.22389    0.04384   1.00
C3       0.77481    0.27296    -0.04123   1.00
C3       0.77282    0.27534    0.04114   1.00
C2       0.74898    0.25062    -0.10512   1.00
C2       0.75102    0.24938    0.10512   1.00
C3       0.72149    0.22777    -0.08462   1.00
C3       0.72546    0.22424    0.08481   1.00
C3       0.77496    0.27343    -0.08258   1.00
C3       0.77501    0.27406    0.08238   1.00
H1       0.69938    0.21057    -0.03115   1.00
H1       0.70540    0.20433    0.03148   1.00
C5       0.80220    0.29581    -0.02020   1.00
C5       0.79603    0.30242    0.02020   1.00
H1       0.70172    0.21094    -0.09955   1.00
H1       0.70755    0.20555    0.09990   1.00
H1       0.79437    0.29114    -0.09680   1.00
H1       0.79504    0.29122    0.09632   1.00
O3       0.83291    0.31303    -0.03961   1.00
O3       0.81460    0.33289    0.03901   1.00
Si1      0.87478    0.29046    -0.04247   1.00
Si1      0.79034    0.37304    0.04721   1.00
C6       0.89735    0.32304    -0.07538   1.00
C6       0.89670    0.29273    0.00402   1.00
C6       0.87110    0.24315    -0.06253   1.00
C6       0.74077    0.37496    0.03307   1.00
C6       0.79382    0.37855    0.09802   1.00
C6       0.81656    0.41141    0.02523   1.00
C6       0.87252    0.33488    -0.11194   1.00
H2       0.89983    0.34958    -0.05791   1.00
C6       0.93948    0.31494    -0.09147   1.00
H2       0.88314    0.31874    0.01642   1.00
C6       0.88830    0.25904    0.03366   1.00
C6       0.94172    0.29996    0.00664   1.00
H2       0.85300    0.24818    -0.08831   1.00
C6       0.90964    0.22378    -0.07772   1.00
C6       0.85057    0.20991    -0.03849   1.00
C6       0.73060    0.36705    -0.01071   1.00
C6       0.70940    0.35266    0.05775   1.00
H2       0.73358    0.40562    0.03788   1.00
H2       0.77555    0.35514    0.10949   1.00
C6       0.83517    0.37169    0.11622   1.00
C6       0.77793    0.41734    0.11607   1.00
H2       0.83955    0.41809    0.04625   1.00
C6       0.83847    0.40137    -0.01336   1.00
C6       0.79469    0.45080    0.01756   1.00
H2       0.84430    0.34704    -0.10346   1.00
H2       0.86717    0.30980    -0.13090   1.00
H2       0.88731    0.35730    -0.12917   1.00
H2       0.95489    0.34251    -0.09608   1.00
H2       0.95708    0.29739    -0.07178   1.00
H2       0.93900    0.30004    -0.11964   1.00
H2       0.89636    0.26778    0.06328   1.00
H2       0.85749    0.25144    0.03468   1.00
H2       0.90504    0.23292    0.02648   1.00
H2       0.95014    0.32661    -0.00862   1.00
H2       0.95112    0.30373    0.03692   1.00
H2       0.95804    0.27541    -0.00550   1.00
H2       0.93213    0.22367    -0.05514   1.00
H2       0.90503    0.19359    -0.08708   1.00
H2       0.92079    0.23878    -0.10332   1.00
H2       0.87085    0.19493    -0.01902   1.00
H2       0.82657    0.22018    -0.02068   1.00
H2       0.83860    0.18790    -0.05828   1.00
H2       0.72854    0.33594    -0.01688   1.00
H2       0.70234    0.37989    -0.01809   1.00
H2       0.75199    0.37970    -0.03048   1.00
H2       0.67995    0.36109    0.04875   1.00
H2       0.71146    0.32118    0.05426   1.00
H2       0.71150    0.35943    0.08878   1.00
H2       0.83309    0.36917    0.14798   1.00
H2       0.84819    0.34456    0.10565   1.00
H2       0.85521    0.39555    0.10965   1.00
H2       0.74850    0.42392    0.10584   1.00
H2       0.77640    0.41500    0.14788   1.00
H2       0.79686    0.44202    0.10915   1.00
H2       0.81852    0.39265    -0.03656   1.00
H2       0.85579    0.42601    -0.02381   1.00
H2       0.85857    0.37741    -0.00834   1.00
H2       0.81528    0.47383    0.00956   1.00
H2       0.77363    0.44799    -0.00622   1.00
H2       0.77921    0.46093    0.04343   1.00
C4       0.91198    0.91539    1.18584   1.00
C4       0.91255    0.91585    1.14412   1.00
C3       0.88540    0.93754    1.20864   1.00
C3       0.88905    0.94111    1.12116   1.00
C3       0.93981    0.89204    1.20623   1.00
C3       0.93782    0.88966    1.12386   1.00
C2       0.91398    0.91438    1.27012   1.00
C2       0.91602    0.91562    1.05988   1.00
C3       0.88649    0.93723    1.24962   1.00
C3       0.89046    0.94076    1.08019   1.00
C3       0.93996    0.89157    1.24758   1.00
C3       0.94001    0.89094    1.08262   1.00
H1       0.86438    0.95443    1.19615   1.00
H1       0.87040    0.96067    1.13352   1.00
C5       0.96720    0.86919    1.18520   1.00
C5       0.96103    0.86258    1.14480   1.00
H1       0.86672    0.95406    1.26455   1.00
H1       0.87255    0.95945    1.06510   1.00
H1       0.95937    0.87386    1.26180   1.00
H1       0.96004    0.87378    1.06868   1.00
O3       0.99791    0.85197    1.20461   1.00
O3       0.97960    0.83211    1.12599   1.00
Si1      1.03978    0.87454    1.20747   1.00
Si1      0.95534    0.79196    1.11779   1.00
C6       1.06235    0.84196    1.24038   1.00
C6       1.06170    0.87227    1.16098   1.00
C6       1.03610    0.92185    1.22753   1.00
C6       0.90577    0.79004    1.13193   1.00
C6       0.95882    0.78645    1.06698   1.00
C6       0.98156    0.75359    1.13977   1.00
C6       1.03752    0.83012    1.27694   1.00
H2       1.06483    0.81542    1.22291   1.00
C6       1.10448    0.85006    1.25647   1.00
H2       1.04814    0.84626    1.14858   1.00
C6       1.05330    0.90596    1.13134   1.00
C6       1.10672    0.86504    1.15836   1.00
H2       1.01800    0.91682    1.25331   1.00
C6       1.07464    0.94122    1.24272   1.00
C6       1.01557    0.95509    1.20349   1.00
C6       0.89560    0.79795    1.17571   1.00
C6       0.87440    0.81234    1.10725   1.00
H2       0.89858    0.75938    1.12712   1.00
H2       0.94055    0.80986    1.05551   1.00
C6       1.00017    0.79331    1.04878   1.00
C6       0.94293    0.74766    1.04893   1.00
H2       1.00455    0.74691    1.11875   1.00
C6       1.00347    0.76363    1.17836   1.00
C6       0.95969    0.71420    1.14744   1.00
H2       1.00930    0.81796    1.26846   1.00
H2       1.03217    0.85520    1.29590   1.00
H2       1.05231    0.80770    1.29417   1.00
H2       1.11989    0.82249    1.26108   1.00
H2       1.12208    0.86761    1.23678   1.00
H2       1.10400    0.86496    1.28464   1.00
H2       1.06136    0.89722    1.10172   1.00
H2       1.02249    0.91356    1.13032   1.00
H2       1.07004    0.93208    1.13852   1.00
H2       1.11514    0.83839    1.17362   1.00
H2       1.11612    0.86127    1.12808   1.00
H2       1.12304    0.88959    1.17050   1.00
H2       1.09713    0.94133    1.22014   1.00
H2       1.07003    0.97141    1.25208   1.00
H2       1.08579    0.92622    1.26832   1.00
H2       1.03585    0.97007    1.18402   1.00
H2       0.99157    0.94482    1.18568   1.00
H2       1.00360    0.97710    1.22328   1.00
H2       0.89354    0.82906    1.18188   1.00
H2       0.86734    0.78511    1.18309   1.00
H2       0.91699    0.78530    1.19548   1.00
H2       0.84495    0.80391    1.11625   1.00
H2       0.87646    0.84382    1.11074   1.00
H2       0.87650    0.80557    1.07622   1.00
H2       0.99809    0.79583    1.01702   1.00
H2       1.01319    0.82044    1.05935   1.00
H2       1.02021    0.76945    1.05535   1.00
H2       0.91350    0.74108    1.05916   1.00
H2       0.94140    0.75000    1.01712   1.00
H2       0.96186    0.72298    1.05585   1.00
H2       0.98352    0.77235    1.20156   1.00
H2       1.02079    0.73899    1.18881   1.00
H2       1.02357    0.78759    1.17334   1.00
H2       0.98028    0.69117    1.15544   1.00
H2       0.93863    0.71701    1.17122   1.00
H2       0.94421    0.70407    1.12157   1.00
C4       0.91539    1.18584    0.91198   1.00
C4       0.91585    1.14412    0.91255   1.00
C3       0.93754    1.20864    0.88540   1.00
C3       0.94111    1.12116    0.88905   1.00
C3       0.89204    1.20623    0.93981   1.00
C3       0.88966    1.12386    0.93782   1.00
C2       0.91438    1.27012    0.91398   1.00
C2       0.91562    1.05988    0.91602   1.00
C3       0.93723    1.24962    0.88649   1.00
C3       0.94076    1.08019    0.89046   1.00
C3       0.89157    1.24758    0.93996   1.00
C3       0.89094    1.08262    0.94001   1.00
H1       0.95443    1.19615    0.86438   1.00
H1       0.96067    1.13352    0.87040   1.00
C5       0.86919    1.18520    0.96720   1.00
C5       0.86258    1.14480    0.96103   1.00
H1       0.95406    1.26455    0.86672   1.00
H1       0.95945    1.06510    0.87255   1.00
H1       0.87386    1.26180    0.95937   1.00
H1       0.87378    1.06868    0.96004   1.00
O3       0.85197    1.20461    0.99791   1.00
O3       0.83211    1.12599    0.97960   1.00
Si1      0.87454    1.20747    1.03978   1.00
Si1      0.79196    1.11779    0.95534   1.00
C6       0.84196    1.24038    1.06235   1.00
C6       0.87227    1.16098    1.06170   1.00
C6       0.92185    1.22753    1.03610   1.00
C6       0.79004    1.13193    0.90577   1.00
C6       0.78645    1.06698    0.95882   1.00
C6       0.75359    1.13977    0.98156   1.00
C6       0.83012    1.27694    1.03752   1.00
H2       0.81542    1.22291    1.06483   1.00
C6       0.85006    1.25647    1.10448   1.00
H2       0.84626    1.14858    1.04814   1.00
C6       0.90596    1.13134    1.05330   1.00
C6       0.86504    1.15836    1.10672   1.00
H2       0.91682    1.25331    1.01800   1.00
C6       0.94122    1.24272    1.07464   1.00
C6       0.95509    1.20349    1.01557   1.00
C6       0.79795    1.17571    0.89560   1.00
C6       0.81234    1.10725    0.87440   1.00
H2       0.75938    1.12712    0.89858   1.00
H2       0.80986    1.05551    0.94055   1.00
C6       0.79331    1.04878    1.00017   1.00
C6       0.74766    1.04893    0.94293   1.00
H2       0.74691    1.11875    1.00455   1.00
C6       0.76363    1.17836    1.00347   1.00
C6       0.71420    1.14744    0.95969   1.00
H2       0.81796    1.26846    1.00930   1.00
H2       0.85520    1.29590    1.03217   1.00
H2       0.80770    1.29417    1.05231   1.00
H2       0.82249    1.26108    1.11989   1.00
H2       0.86761    1.23678    1.12208   1.00
H2       0.86496    1.28464    1.10400   1.00
H2       0.89722    1.10172    1.06136   1.00
H2       0.91356    1.13032    1.02249   1.00
H2       0.93208    1.13852    1.07004   1.00
H2       0.83839    1.17362    1.11514   1.00
H2       0.86127    1.12808    1.11612   1.00
H2       0.88959    1.17050    1.12304   1.00
H2       0.94133    1.22014    1.09713   1.00
H2       0.97141    1.25208    1.07003   1.00
H2       0.92622    1.26832    1.08579   1.00
H2       0.97007    1.18402    1.03585   1.00
H2       0.94482    1.18568    0.99157   1.00
H2       0.97710    1.22328    1.00360   1.00
H2       0.82906    1.18188    0.89354   1.00
H2       0.78511    1.18309    0.86734   1.00
H2       0.78530    1.19548    0.91699   1.00
H2       0.80391    1.11625    0.84495   1.00
H2       0.84382    1.11074    0.87646   1.00
H2       0.80557    1.07622    0.87650   1.00
H2       0.79583    1.01702    0.99809   1.00
H2       0.82044    1.05935    1.01319   1.00
H2       0.76945    1.05535    1.02021   1.00
H2       0.74108    1.05916    0.91350   1.00
H2       0.75000    1.01712    0.94140   1.00
H2       0.72298    1.05585    0.96186   1.00
H2       0.77235    1.20156    0.98352   1.00
H2       0.73899    1.18881    1.02079   1.00
H2       0.78759    1.17334    1.02357   1.00
H2       0.69117    1.15544    0.98028   1.00
H2       0.71701    1.17122    0.93863   1.00
H2       0.70407    1.12157    0.94421   1.00
C4       0.64416    0.91198    0.91461   1.00
C4       0.68588    0.91255    0.91415   1.00
C3       0.62136    0.88540    0.89246   1.00
C3       0.70884    0.88905    0.88889   1.00
C3       0.62377    0.93981    0.93796   1.00
C3       0.70614    0.93782    0.94034   1.00
C2       0.55988    0.91398    0.91562   1.00
C2       0.77012    0.91602    0.91438   1.00
C3       0.58038    0.88649    0.89277   1.00
C3       0.74981    0.89046    0.88924   1.00
C3       0.58242    0.93996    0.93843   1.00
C3       0.74738    0.94001    0.93906   1.00
H1       0.63385    0.86438    0.87557   1.00
H1       0.69648    0.87040    0.86933   1.00
C5       0.64480    0.96720    0.96081   1.00
C5       0.68520    0.96103    0.96742   1.00
H1       0.56545    0.86672    0.87594   1.00
H1       0.76490    0.87255    0.87055   1.00
H1       0.56820    0.95937    0.95614   1.00
H1       0.76132    0.96004    0.95622   1.00
O3       0.62539    0.99791    0.97803   1.00
O3       0.70401    0.97960    0.99789   1.00
Si1      0.62253    1.03978    0.95546   1.00
Si1      0.71221    0.95534    1.03804   1.00
C6       0.58962    1.06235    0.98804   1.00
C6       0.66902    1.06170    0.95773   1.00
C6       0.60247    1.03610    0.90815   1.00
C6       0.69807    0.90577    1.03996   1.00
C6       0.76302    0.95882    1.04355   1.00
C6       0.69023    0.98156    1.07641   1.00
C6       0.55306    1.03752    0.99988   1.00
H2       0.60709    1.06483    1.01458   1.00
C6       0.57353    1.10448    0.97994   1.00
H2       0.68142    1.04814    0.98374   1.00
C6       0.69866    1.05330    0.92404   1.00
C6       0.67164    1.10672    0.96496   1.00
H2       0.57669    1.01800    0.91318   1.00
C6       0.58728    1.07464    0.88878   1.00
C6       0.62651    1.01557    0.87491   1.00
C6       0.65429    0.89560    1.03205   1.00
C6       0.72275    0.87440    1.01766   1.00
H2       0.70288    0.89858    1.07062   1.00
H2       0.77449    0.94055    1.02014   1.00
C6       0.78122    1.00017    1.03669   1.00
C6       0.78107    0.94293    1.08234   1.00
H2       0.71125    1.00455    1.08309   1.00
C6       0.65164    1.00347    1.06637   1.00
C6       0.68256    0.95969    1.11580   1.00
H2       0.56154    1.00930    1.01204   1.00
H2       0.53410    1.03217    0.97480   1.00
H2       0.53583    1.05231    1.02230   1.00
H2       0.56892    1.11989    1.00751   1.00
H2       0.59322    1.12208    0.96239   1.00
H2       0.54536    1.10400    0.96504   1.00
H2       0.72828    1.06136    0.93278   1.00
H2       0.69968    1.02249    0.91644   1.00
H2       0.69148    1.07004    0.89792   1.00
H2       0.65638    1.11514    0.99161   1.00
H2       0.70192    1.11612    0.96873   1.00
H2       0.65950    1.12304    0.94041   1.00
H2       0.60986    1.09713    0.88867   1.00
H2       0.57792    1.07003    0.85859   1.00
H2       0.56168    1.08579    0.90378   1.00
H2       0.64598    1.03585    0.85993   1.00
H2       0.64432    0.99157    0.88518   1.00
H2       0.60672    1.00360    0.85290   1.00
H2       0.64812    0.89354    1.00094   1.00
H2       0.64691    0.86734    1.04489   1.00
H2       0.63452    0.91699    1.04470   1.00
H2       0.71375    0.84495    1.02609   1.00
H2       0.71926    0.87646    0.98618   1.00
H2       0.75378    0.87650    1.02443   1.00
H2       0.81298    0.99809    1.03417   1.00
H2       0.77065    1.01319    1.00956   1.00
H2       0.77465    1.02021    1.06055   1.00
H2       0.77084    0.91350    1.08892   1.00
H2       0.81288    0.94140    1.08000   1.00
H2       0.77415    0.96186    1.10702   1.00
H2       0.62844    0.98352    1.05765   1.00
H2       0.64119    1.02079    1.09101   1.00
H2       0.65666    1.02357    1.04241   1.00
H2       0.67456    0.98028    1.13883   1.00
H2       0.65878    0.93863    1.11299   1.00
H2       0.70843    0.94421    1.12593   1.00
C4       1.18584    0.91198    0.91539   1.00
C4       1.14412    0.91255    0.91585   1.00
C3       1.20864    0.88540    0.93754   1.00
C3       1.12116    0.88905    0.94111   1.00
C3       1.20623    0.93981    0.89204   1.00
C3       1.12386    0.93782    0.88966   1.00
C2       1.27012    0.91398    0.91438   1.00
C2       1.05988    0.91602    0.91562   1.00
C3       1.24962    0.88649    0.93723   1.00
C3       1.08019    0.89046    0.94076   1.00
C3       1.24758    0.93996    0.89157   1.00
C3       1.08262    0.94001    0.89094   1.00
H1       1.19615    0.86438    0.95443   1.00
H1       1.13352    0.87040    0.96067   1.00
C5       1.18520    0.96720    0.86919   1.00
C5       1.14480    0.96103    0.86258   1.00
H1       1.26455    0.86672    0.95406   1.00
H1       1.06510    0.87255    0.95945   1.00
H1       1.26180    0.95937    0.87386   1.00
H1       1.06868    0.96004    0.87378   1.00
O3       1.20461    0.99791    0.85197   1.00
O3       1.12599    0.97960    0.83211   1.00
Si1      1.20747    1.03978    0.87454   1.00
Si1      1.11779    0.95534    0.79196   1.00
C6       1.24038    1.06235    0.84196   1.00
C6       1.16098    1.06170    0.87227   1.00
C6       1.22753    1.03610    0.92185   1.00
C6       1.13193    0.90577    0.79004   1.00
C6       1.06698    0.95882    0.78645   1.00
C6       1.13977    0.98156    0.75359   1.00
C6       1.27694    1.03752    0.83012   1.00
H2       1.22291    1.06483    0.81542   1.00
C6       1.25647    1.10448    0.85006   1.00
H2       1.14858    1.04814    0.84626   1.00
C6       1.13134    1.05330    0.90596   1.00
C6       1.15836    1.10672    0.86504   1.00
H2       1.25331    1.01800    0.91682   1.00
C6       1.24272    1.07464    0.94122   1.00
C6       1.20349    1.01557    0.95509   1.00
C6       1.17571    0.89560    0.79795   1.00
C6       1.10725    0.87440    0.81234   1.00
H2       1.12712    0.89858    0.75938   1.00
H2       1.05551    0.94055    0.80986   1.00
C6       1.04878    1.00017    0.79331   1.00
C6       1.04893    0.94293    0.74766   1.00
H2       1.11875    1.00455    0.74691   1.00
C6       1.17836    1.00347    0.76363   1.00
C6       1.14744    0.95969    0.71420   1.00
H2       1.26846    1.00930    0.81796   1.00
H2       1.29590    1.03217    0.85520   1.00
H2       1.29417    1.05231    0.80770   1.00
H2       1.26108    1.11989    0.82249   1.00
H2       1.23678    1.12208    0.86761   1.00
H2       1.28464    1.10400    0.86496   1.00
H2       1.10172    1.06136    0.89722   1.00
H2       1.13032    1.02249    0.91356   1.00
H2       1.13852    1.07004    0.93208   1.00
H2       1.17362    1.11514    0.83839   1.00
H2       1.12808    1.11612    0.86127   1.00
H2       1.17050    1.12304    0.88959   1.00
H2       1.22014    1.09713    0.94133   1.00
H2       1.25208    1.07003    0.97141   1.00
H2       1.26832    1.08579    0.92622   1.00
H2       1.18402    1.03585    0.97007   1.00
H2       1.18568    0.99157    0.94482   1.00
H2       1.22328    1.00360    0.97710   1.00
H2       1.18188    0.89354    0.82906   1.00
H2       1.18309    0.86734    0.78511   1.00
H2       1.19548    0.91699    0.78530   1.00
H2       1.11625    0.84495    0.80391   1.00
H2       1.11074    0.87646    0.84382   1.00
H2       1.07622    0.87650    0.80557   1.00
H2       1.01702    0.99809    0.79583   1.00
H2       1.05935    1.01319    0.82044   1.00
H2       1.05535    1.02021    0.76945   1.00
H2       1.05916    0.91350    0.74108   1.00
H2       1.01712    0.94140    0.75000   1.00
H2       1.05585    0.96186    0.72298   1.00
H2       1.20156    0.98352    0.77235   1.00
H2       1.18881    1.02079    0.73899   1.00
H2       1.17334    1.02357    0.78759   1.00
H2       1.15544    0.98028    0.69117   1.00
H2       1.17122    0.93863    0.71701   1.00
H2       1.12157    0.94421    0.70407   1.00
C4       0.91461    0.64416    0.91198   1.00
C4       0.91415    0.68588    0.91255   1.00
C3       0.89246    0.62136    0.88540   1.00
C3       0.88889    0.70884    0.88905   1.00
C3       0.93796    0.62377    0.93981   1.00
C3       0.94034    0.70614    0.93782   1.00
C2       0.91562    0.55988    0.91398   1.00
C2       0.91438    0.77012    0.91602   1.00
C3       0.89277    0.58038    0.88649   1.00
C3       0.88924    0.74981    0.89046   1.00
C3       0.93843    0.58242    0.93996   1.00
C3       0.93906    0.74738    0.94001   1.00
H1       0.87557    0.63385    0.86438   1.00
H1       0.86933    0.69648    0.87040   1.00
C5       0.96081    0.64480    0.96720   1.00
C5       0.96742    0.68520    0.96103   1.00
H1       0.87594    0.56545    0.86672   1.00
H1       0.87055    0.76490    0.87255   1.00
H1       0.95614    0.56820    0.95937   1.00
H1       0.95622    0.76132    0.96004   1.00
O3       0.97803    0.62539    0.99791   1.00
O3       0.99789    0.70401    0.97960   1.00
Si1      0.95546    0.62253    1.03978   1.00
Si1      1.03804    0.71221    0.95534   1.00
C6       0.98804    0.58962    1.06235   1.00
C6       0.95773    0.66902    1.06170   1.00
C6       0.90815    0.60247    1.03610   1.00
C6       1.03996    0.69807    0.90577   1.00
C6       1.04355    0.76302    0.95882   1.00
C6       1.07641    0.69023    0.98156   1.00
C6       0.99988    0.55306    1.03752   1.00
H2       1.01458    0.60709    1.06483   1.00
C6       0.97994    0.57353    1.10448   1.00
H2       0.98374    0.68142    1.04814   1.00
C6       0.92404    0.69866    1.05330   1.00
C6       0.96496    0.67164    1.10672   1.00
H2       0.91318    0.57669    1.01800   1.00
C6       0.88878    0.58728    1.07464   1.00
C6       0.87491    0.62651    1.01557   1.00
C6       1.03205    0.65429    0.89560   1.00
C6       1.01766    0.72275    0.87440   1.00
H2       1.07062    0.70288    0.89858   1.00
H2       1.02014    0.77449    0.94055   1.00
C6       1.03669    0.78122    1.00017   1.00
C6       1.08234    0.78107    0.94293   1.00
H2       1.08309    0.71125    1.00455   1.00
C6       1.06637    0.65164    1.00347   1.00
C6       1.11580    0.68256    0.95969   1.00
H2       1.01204    0.56154    1.00930   1.00
H2       0.97480    0.53410    1.03217   1.00
H2       1.02230    0.53583    1.05231   1.00
H2       1.00751    0.56892    1.11989   1.00
H2       0.96239    0.59322    1.12208   1.00
H2       0.96504    0.54536    1.10400   1.00
H2       0.93278    0.72828    1.06136   1.00
H2       0.91644    0.69968    1.02249   1.00
H2       0.89792    0.69148    1.07004   1.00
H2       0.99161    0.65638    1.11514   1.00
H2       0.96873    0.70192    1.11612   1.00
H2       0.94041    0.65950    1.12304   1.00
H2       0.88867    0.60986    1.09713   1.00
H2       0.85859    0.57792    1.07003   1.00
H2       0.90378    0.56168    1.08579   1.00
H2       0.85993    0.64598    1.03585   1.00
H2       0.88518    0.64432    0.99157   1.00
H2       0.85290    0.60672    1.00360   1.00
H2       1.00094    0.64812    0.89354   1.00
H2       1.04489    0.64691    0.86734   1.00
H2       1.04470    0.63452    0.91699   1.00
H2       1.02609    0.71375    0.84495   1.00
H2       0.98618    0.71926    0.87646   1.00
H2       1.02443    0.75378    0.87650   1.00
H2       1.03417    0.81298    0.99809   1.00
H2       1.00956    0.77065    1.01319   1.00
H2       1.06055    0.77465    1.02021   1.00
H2       1.08892    0.77084    0.91350   1.00
H2       1.08000    0.81288    0.94140   1.00
H2       1.10702    0.77415    0.96186   1.00
H2       1.05765    0.62844    0.98352   1.00
H2       1.09101    0.64119    1.02079   1.00
H2       1.04241    0.65666    1.02357   1.00
H2       1.13883    0.67456    0.98028   1.00
H2       1.11299    0.65878    0.93863   1.00
H2       1.12593    0.70843    0.94421   1.00
C4       0.91198    0.91461    0.64416   1.00
C4       0.91255    0.91415    0.68588   1.00
C3       0.88540    0.89246    0.62136   1.00
C3       0.88905    0.88889    0.70884   1.00
C3       0.93981    0.93796    0.62377   1.00
C3       0.93782    0.94034    0.70614   1.00
C2       0.91398    0.91562    0.55988   1.00
C2       0.91602    0.91438    0.77012   1.00
C3       0.88649    0.89277    0.58038   1.00
C3       0.89046    0.88924    0.74981   1.00
C3       0.93996    0.93843    0.58242   1.00
C3       0.94001    0.93906    0.74738   1.00
H1       0.86438    0.87557    0.63385   1.00
H1       0.87040    0.86933    0.69648   1.00
C5       0.96720    0.96081    0.64480   1.00
C5       0.96103    0.96742    0.68520   1.00
H1       0.86672    0.87594    0.56545   1.00
H1       0.87255    0.87055    0.76490   1.00
H1       0.95937    0.95614    0.56820   1.00
H1       0.96004    0.95622    0.76132   1.00
O3       0.99791    0.97803    0.62539   1.00
O3       0.97960    0.99789    0.70401   1.00
Si1      1.03978    0.95546    0.62253   1.00
Si1      0.95534    1.03804    0.71221   1.00
C6       1.06235    0.98804    0.58962   1.00
C6       1.06170    0.95773    0.66902   1.00
C6       1.03610    0.90815    0.60247   1.00
C6       0.90577    1.03996    0.69807   1.00
C6       0.95882    1.04355    0.76302   1.00
C6       0.98156    1.07641    0.69023   1.00
C6       1.03752    0.99988    0.55306   1.00
H2       1.06483    1.01458    0.60709   1.00
C6       1.10448    0.97994    0.57353   1.00
H2       1.04814    0.98374    0.68142   1.00
C6       1.05330    0.92404    0.69866   1.00
C6       1.10672    0.96496    0.67164   1.00
H2       1.01800    0.91318    0.57669   1.00
C6       1.07464    0.88878    0.58728   1.00
C6       1.01557    0.87491    0.62651   1.00
C6       0.89560    1.03205    0.65429   1.00
C6       0.87440    1.01766    0.72275   1.00
H2       0.89858    1.07062    0.70288   1.00
H2       0.94055    1.02014    0.77449   1.00
C6       1.00017    1.03669    0.78122   1.00
C6       0.94293    1.08234    0.78107   1.00
H2       1.00455    1.08309    0.71125   1.00
C6       1.00347    1.06637    0.65164   1.00
C6       0.95969    1.11580    0.68256   1.00
H2       1.00930    1.01204    0.56154   1.00
H2       1.03217    0.97480    0.53410   1.00
H2       1.05231    1.02230    0.53583   1.00
H2       1.11989    1.00751    0.56892   1.00
H2       1.12208    0.96239    0.59322   1.00
H2       1.10400    0.96504    0.54536   1.00
H2       1.06136    0.93278    0.72828   1.00
H2       1.02249    0.91644    0.69968   1.00
H2       1.07004    0.89792    0.69148   1.00
H2       1.11514    0.99161    0.65638   1.00
H2       1.11612    0.96873    0.70192   1.00
H2       1.12304    0.94041    0.65950   1.00
H2       1.09713    0.88867    0.60986   1.00
H2       1.07003    0.85859    0.57792   1.00
H2       1.08579    0.90378    0.56168   1.00
H2       1.03585    0.85993    0.64598   1.00
H2       0.99157    0.88518    0.64432   1.00
H2       1.00360    0.85290    0.60672   1.00
H2       0.89354    1.00094    0.64812   1.00
H2       0.86734    1.04489    0.64691   1.00
H2       0.91699    1.04470    0.63452   1.00
H2       0.84495    1.02609    0.71375   1.00
H2       0.87646    0.98618    0.71926   1.00
H2       0.87650    1.02443    0.75378   1.00
H2       0.99809    1.03417    0.81298   1.00
H2       1.01319    1.00956    0.77065   1.00
H2       1.02021    1.06055    0.77465   1.00
H2       0.91350    1.08892    0.77084   1.00
H2       0.94140    1.08000    0.81288   1.00
H2       0.96186    1.10702    0.77415   1.00
H2       0.98352    1.05765    0.62844   1.00
H2       1.02079    1.09101    0.64119   1.00
H2       1.02357    1.04241    0.65666   1.00
H2       0.98028    1.13883    0.67456   1.00
H2       0.93863    1.11299    0.65878   1.00
H2       0.94421    1.12593    0.70843   1.00
C4       0.41198    0.41539    1.18584   1.00
C4       0.41255    0.41585    1.14412   1.00
C3       0.38540    0.43754    1.20864   1.00
C3       0.38905    0.44111    1.12116   1.00
C3       0.43981    0.39204    1.20623   1.00
C3       0.43782    0.38966    1.12386   1.00
C2       0.41398    0.41438    1.27012   1.00
C2       0.41602    0.41562    1.05988   1.00
C3       0.38649    0.43723    1.24962   1.00
C3       0.39046    0.44076    1.08019   1.00
C3       0.43996    0.39157    1.24758   1.00
C3       0.44001    0.39094    1.08262   1.00
H1       0.36438    0.45443    1.19615   1.00
H1       0.37040    0.46067    1.13352   1.00
C5       0.46720    0.36919    1.18520   1.00
C5       0.46103    0.36258    1.14480   1.00
H1       0.36672    0.45406    1.26455   1.00
H1       0.37255    0.45945    1.06510   1.00
H1       0.45937    0.37386    1.26180   1.00
H1       0.46004    0.37378    1.06868   1.00
O3       0.49791    0.35197    1.20461   1.00
O3       0.47960    0.33211    1.12599   1.00
Si1      0.53978    0.37454    1.20747   1.00
Si1      0.45534    0.29196    1.11779   1.00
C6       0.56235    0.34196    1.24038   1.00
C6       0.56170    0.37227    1.16098   1.00
C6       0.53610    0.42185    1.22753   1.00
C6       0.40577    0.29004    1.13193   1.00
C6       0.45882    0.28645    1.06698   1.00
C6       0.48156    0.25359    1.13977   1.00
C6       0.53752    0.33012    1.27694   1.00
H2       0.56483    0.31542    1.22291   1.00
C6       0.60448    0.35006    1.25647   1.00
H2       0.54814    0.34626    1.14858   1.00
C6       0.55330    0.40596    1.13134   1.00
C6       0.60672    0.36504    1.15836   1.00
H2       0.51800    0.41682    1.25331   1.00
C6       0.57464    0.44122    1.24272   1.00
C6       0.51557    0.45509    1.20349   1.00
C6       0.39560    0.29795    1.17571   1.00
C6       0.37440    0.31234    1.10725   1.00
H2       0.39858    0.25938    1.12712   1.00
H2       0.44055    0.30986    1.05551   1.00
C6       0.50017    0.29331    1.04878   1.00
C6       0.44293    0.24766    1.04893   1.00
H2       0.50455    0.24691    1.11875   1.00
C6       0.50347    0.26363    1.17836   1.00
C6       0.45969    0.21420    1.14744   1.00
H2       0.50930    0.31796    1.26846   1.00
H2       0.53217    0.35520    1.29590   1.00
H2       0.55231    0.30770    1.29417   1.00
H2       0.61989    0.32249    1.26108   1.00
H2       0.62208    0.36761    1.23678   1.00
H2       0.60400    0.36496    1.28464   1.00
H2       0.56136    0.39722    1.10172   1.00
H2       0.52249    0.41356    1.13032   1.00
H2       0.57004    0.43208    1.13852   1.00
H2       0.61514    0.33839    1.17362   1.00
H2       0.61612    0.36127    1.12808   1.00
H2       0.62304    0.38959    1.17050   1.00
H2       0.59713    0.44133    1.22014   1.00
H2       0.57003    0.47141    1.25208   1.00
H2       0.58579    0.42622    1.26832   1.00
H2       0.53585    0.47007    1.18402   1.00
H2       0.49157    0.44482    1.18568   1.00
H2       0.50360    0.47710    1.22328   1.00
H2       0.39354    0.32906    1.18188   1.00
H2       0.36734    0.28511    1.18309   1.00
H2       0.41699    0.28530    1.19548   1.00
H2       0.34495    0.30391    1.11625   1.00
H2       0.37646    0.34382    1.11074   1.00
H2       0.37650    0.30557    1.07622   1.00
H2       0.49809    0.29583    1.01702   1.00
H2       0.51319    0.32044    1.05935   1.00
H2       0.52021    0.26945    1.05535   1.00
H2       0.41350    0.24108    1.05916   1.00
H2       0.44140    0.25000    1.01712   1.00
H2       0.46186    0.22298    1.05585   1.00
H2       0.48352    0.27235    1.20156   1.00
H2       0.52079    0.23899    1.18881   1.00
H2       0.52357    0.28759    1.17334   1.00
H2       0.48028    0.19117    1.15544   1.00
H2       0.43863    0.21701    1.17122   1.00
H2       0.44421    0.20407    1.12157   1.00
C4       0.41539    0.68584    0.91198   1.00
C4       0.41585    0.64412    0.91255   1.00
C3       0.43754    0.70864    0.88540   1.00
C3       0.44111    0.62116    0.88905   1.00
C3       0.39204    0.70623    0.93981   1.00
C3       0.38966    0.62386    0.93782   1.00
C2       0.41438    0.77012    0.91398   1.00
C2       0.41562    0.55988    0.91602   1.00
C3       0.43723    0.74962    0.88649   1.00
C3       0.44076    0.58019    0.89046   1.00
C3       0.39157    0.74758    0.93996   1.00
C3       0.39094    0.58262    0.94001   1.00
H1       0.45443    0.69615    0.86438   1.00
H1       0.46067    0.63352    0.87040   1.00
C5       0.36919    0.68520    0.96720   1.00
C5       0.36258    0.64480    0.96103   1.00
H1       0.45406    0.76455    0.86672   1.00
H1       0.45945    0.56510    0.87255   1.00
H1       0.37386    0.76180    0.95937   1.00
H1       0.37378    0.56868    0.96004   1.00
O3       0.35197    0.70461    0.99791   1.00
O3       0.33211    0.62599    0.97960   1.00
Si1      0.37454    0.70747    1.03978   1.00
Si1      0.29196    0.61779    0.95534   1.00
C6       0.34196    0.74038    1.06235   1.00
C6       0.37227    0.66098    1.06170   1.00
C6       0.42185    0.72753    1.03610   1.00
C6       0.29004    0.63193    0.90577   1.00
C6       0.28645    0.56698    0.95882   1.00
C6       0.25359    0.63977    0.98156   1.00
C6       0.33012    0.77694    1.03752   1.00
H2       0.31542    0.72291    1.06483   1.00
C6       0.35006    0.75647    1.10448   1.00
H2       0.34626    0.64858    1.04814   1.00
C6       0.40596    0.63134    1.05330   1.00
C6       0.36504    0.65836    1.10672   1.00
H2       0.41682    0.75331    1.01800   1.00
C6       0.44122    0.74272    1.07464   1.00
C6       0.45509    0.70349    1.01557   1.00
C6       0.29795    0.67571    0.89560   1.00
C6       0.31234    0.60725    0.87440   1.00
H2       0.25938    0.62712    0.89858   1.00
H2       0.30986    0.55551    0.94055   1.00
C6       0.29331    0.54878    1.00017   1.00
C6       0.24766    0.54893    0.94293   1.00
H2       0.24691    0.61875    1.00455   1.00
C6       0.26363    0.67836    1.00347   1.00
C6       0.21420    0.64744    0.95969   1.00
H2       0.31796    0.76846    1.00930   1.00
H2       0.35520    0.79590    1.03217   1.00
H2       0.30770    0.79417    1.05231   1.00
H2       0.32249    0.76108    1.11989   1.00
H2       0.36761    0.73678    1.12208   1.00
H2       0.36496    0.78464    1.10400   1.00
H2       0.39722    0.60172    1.06136   1.00
H2       0.41356    0.63032    1.02249   1.00
H2       0.43208    0.63852    1.07004   1.00
H2       0.33839    0.67362    1.11514   1.00
H2       0.36127    0.62808    1.11612   1.00
H2       0.38959    0.67050    1.12304   1.00
H2       0.44133    0.72014    1.09713   1.00
H2       0.47141    0.75208    1.07003   1.00
H2       0.42622    0.76832    1.08579   1.00
H2       0.47007    0.68402    1.03585   1.00
H2       0.44482    0.68568    0.99157   1.00
H2       0.47710    0.72328    1.00360   1.00
H2       0.32906    0.68188    0.89354   1.00
H2       0.28511    0.68309    0.86734   1.00
H2       0.28530    0.69548    0.91699   1.00
H2       0.30391    0.61625    0.84495   1.00
H2       0.34382    0.61074    0.87646   1.00
H2       0.30557    0.57622    0.87650   1.00
H2       0.29583    0.51702    0.99809   1.00
H2       0.32044    0.55935    1.01319   1.00
H2       0.26945    0.55535    1.02021   1.00
H2       0.24108    0.55916    0.91350   1.00
H2       0.25000    0.51712    0.94140   1.00
H2       0.22298    0.55585    0.96186   1.00
H2       0.27235    0.70156    0.98352   1.00
H2       0.23899    0.68881    1.02079   1.00
H2       0.28759    0.67334    1.02357   1.00
H2       0.19117    0.65544    0.98028   1.00
H2       0.21701    0.67122    0.93863   1.00
H2       0.20407    0.62157    0.94421   1.00
C4       0.14416    0.41198    0.91461   1.00
C4       0.18588    0.41255    0.91415   1.00
C3       0.12136    0.38540    0.89246   1.00
C3       0.20884    0.38905    0.88889   1.00
C3       0.12377    0.43981    0.93796   1.00
C3       0.20614    0.43782    0.94034   1.00
C2       0.05988    0.41398    0.91562   1.00
C2       0.27012    0.41602    0.91438   1.00
C3       0.08038    0.38649    0.89277   1.00
C3       0.24981    0.39046    0.88924   1.00
C3       0.08242    0.43996    0.93843   1.00
C3       0.24738    0.44001    0.93906   1.00
H1       0.13385    0.36438    0.87557   1.00
H1       0.19648    0.37040    0.86933   1.00
C5       0.14480    0.46720    0.96081   1.00
C5       0.18520    0.46103    0.96742   1.00
H1       0.06545    0.36672    0.87594   1.00
H1       0.26490    0.37255    0.87055   1.00
H1       0.06820    0.45937    0.95614   1.00
H1       0.26132    0.46004    0.95622   1.00
O3       0.12539    0.49791    0.97803   1.00
O3       0.20401    0.47960    0.99789   1.00
Si1      0.12253    0.53978    0.95546   1.00
Si1      0.21221    0.45534    1.03804   1.00
C6       0.08962    0.56235    0.98804   1.00
C6       0.16902    0.56170    0.95773   1.00
C6       0.10247    0.53610    0.90815   1.00
C6       0.19807    0.40577    1.03996   1.00
C6       0.26302    0.45882    1.04355   1.00
C6       0.19023    0.48156    1.07641   1.00
C6       0.05306    0.53752    0.99988   1.00
H2       0.10709    0.56483    1.01458   1.00
C6       0.07353    0.60448    0.97994   1.00
H2       0.18142    0.54814    0.98374   1.00
C6       0.19866    0.55330    0.92404   1.00
C6       0.17164    0.60672    0.96496   1.00
H2       0.07669    0.51800    0.91318   1.00
C6       0.08728    0.57464    0.88878   1.00
C6       0.12651    0.51557    0.87491   1.00
C6       0.15429    0.39560    1.03205   1.00
C6       0.22275    0.37440    1.01766   1.00
H2       0.20288    0.39858    1.07062   1.00
H2       0.27449    0.44055    1.02014   1.00
C6       0.28122    0.50017    1.03669   1.00
C6       0.28107    0.44293    1.08234   1.00
H2       0.21125    0.50455    1.08309   1.00
C6       0.15164    0.50347    1.06637   1.00
C6       0.18256    0.45969    1.11580   1.00
H2       0.06154    0.50930    1.01204   1.00
H2       0.03410    0.53217    0.97480   1.00
H2       0.03583    0.55231    1.02230   1.00
H2       0.06892    0.61989    1.00751   1.00
H2       0.09322    0.62208    0.96239   1.00
H2       0.04536    0.60400    0.96504   1.00
H2       0.22828    0.56136    0.93278   1.00
H2       0.19968    0.52249    0.91644   1.00
H2       0.19148    0.57004    0.89792   1.00
H2       0.15638    0.61514    0.99161   1.00
H2       0.20192    0.61612    0.96873   1.00
H2       0.15950    0.62304    0.94041   1.00
H2       0.10986    0.59713    0.88867   1.00
H2       0.07792    0.57003    0.85859   1.00
H2       0.06168    0.58579    0.90378   1.00
H2       0.14598    0.53585    0.85993   1.00
H2       0.14432    0.49157    0.88518   1.00
H2       0.10672    0.50360    0.85290   1.00
H2       0.14812    0.39354    1.00094   1.00
H2       0.14691    0.36734    1.04489   1.00
H2       0.13452    0.41699    1.04470   1.00
H2       0.21375    0.34495    1.02609   1.00
H2       0.21926    0.37646    0.98618   1.00
H2       0.25378    0.37650    1.02443   1.00
H2       0.31298    0.49809    1.03417   1.00
H2       0.27065    0.51319    1.00956   1.00
H2       0.27465    0.52021    1.06055   1.00
H2       0.27084    0.41350    1.08892   1.00
H2       0.31288    0.44140    1.08000   1.00
H2       0.27415    0.46186    1.10702   1.00
H2       0.12844    0.48352    1.05765   1.00
H2       0.14119    0.52079    1.09101   1.00
H2       0.15666    0.52357    1.04241   1.00
H2       0.17456    0.48028    1.13883   1.00
H2       0.15878    0.43863    1.11299   1.00
H2       0.20843    0.44421    1.12593   1.00
C4       0.68584    0.41198    0.91539   1.00
C4       0.64412    0.41255    0.91585   1.00
C3       0.70864    0.38540    0.93754   1.00
C3       0.62116    0.38905    0.94111   1.00
C3       0.70623    0.43981    0.89204   1.00
C3       0.62386    0.43782    0.88966   1.00
C2       0.77012    0.41398    0.91438   1.00
C2       0.55988    0.41602    0.91562   1.00
C3       0.74962    0.38649    0.93723   1.00
C3       0.58019    0.39046    0.94076   1.00
C3       0.74758    0.43996    0.89157   1.00
C3       0.58262    0.44001    0.89094   1.00
H1       0.69615    0.36438    0.95443   1.00
H1       0.63352    0.37040    0.96067   1.00
C5       0.68520    0.46720    0.86919   1.00
C5       0.64480    0.46103    0.86258   1.00
H1       0.76455    0.36672    0.95406   1.00
H1       0.56510    0.37255    0.95945   1.00
H1       0.76180    0.45937    0.87386   1.00
H1       0.56868    0.46004    0.87378   1.00
O3       0.70461    0.49791    0.85197   1.00
O3       0.62599    0.47960    0.83211   1.00
Si1      0.70747    0.53978    0.87454   1.00
Si1      0.61779    0.45534    0.79196   1.00
C6       0.74038    0.56235    0.84196   1.00
C6       0.66098    0.56170    0.87227   1.00
C6       0.72753    0.53610    0.92185   1.00
C6       0.63193    0.40577    0.79004   1.00
C6       0.56698    0.45882    0.78645   1.00
C6       0.63977    0.48156    0.75359   1.00
C6       0.77694    0.53752    0.83012   1.00
H2       0.72291    0.56483    0.81542   1.00
C6       0.75647    0.60448    0.85006   1.00
H2       0.64858    0.54814    0.84626   1.00
C6       0.63134    0.55330    0.90596   1.00
C6       0.65836    0.60672    0.86504   1.00
H2       0.75331    0.51800    0.91682   1.00
C6       0.74272    0.57464    0.94122   1.00
C6       0.70349    0.51557    0.95509   1.00
C6       0.67571    0.39560    0.79795   1.00
C6       0.60725    0.37440    0.81234   1.00
H2       0.62712    0.39858    0.75938   1.00
H2       0.55551    0.44055    0.80986   1.00
C6       0.54878    0.50017    0.79331   1.00
C6       0.54893    0.44293    0.74766   1.00
H2       0.61875    0.50455    0.74691   1.00
C6       0.67836    0.50347    0.76363   1.00
C6       0.64744    0.45969    0.71420   1.00
H2       0.76846    0.50930    0.81796   1.00
H2       0.79590    0.53217    0.85520   1.00
H2       0.79417    0.55231    0.80770   1.00
H2       0.76108    0.61989    0.82249   1.00
H2       0.73678    0.62208    0.86761   1.00
H2       0.78464    0.60400    0.86496   1.00
H2       0.60172    0.56136    0.89722   1.00
H2       0.63032    0.52249    0.91356   1.00
H2       0.63852    0.57004    0.93208   1.00
H2       0.67362    0.61514    0.83839   1.00
H2       0.62808    0.61612    0.86127   1.00
H2       0.67050    0.62304    0.88959   1.00
H2       0.72014    0.59713    0.94133   1.00
H2       0.75208    0.57003    0.97141   1.00
H2       0.76832    0.58579    0.92622   1.00
H2       0.68402    0.53585    0.97007   1.00
H2       0.68568    0.49157    0.94482   1.00
H2       0.72328    0.50360    0.97710   1.00
H2       0.68188    0.39354    0.82906   1.00
H2       0.68309    0.36734    0.78511   1.00
H2       0.69548    0.41699    0.78530   1.00
H2       0.61625    0.34495    0.80391   1.00
H2       0.61074    0.37646    0.84382   1.00
H2       0.57622    0.37650    0.80557   1.00
H2       0.51702    0.49809    0.79583   1.00
H2       0.55935    0.51319    0.82044   1.00
H2       0.55535    0.52021    0.76945   1.00
H2       0.55916    0.41350    0.74108   1.00
H2       0.51712    0.44140    0.75000   1.00
H2       0.55585    0.46186    0.72298   1.00
H2       0.70156    0.48352    0.77235   1.00
H2       0.68881    0.52079    0.73899   1.00
H2       0.67334    0.52357    0.78759   1.00
H2       0.65544    0.48028    0.69117   1.00
H2       0.67122    0.43863    0.71701   1.00
H2       0.62157    0.44421    0.70407   1.00
C4       0.41461    0.14416    0.91198   1.00
C4       0.41415    0.18588    0.91255   1.00
C3       0.39246    0.12136    0.88540   1.00
C3       0.38889    0.20884    0.88905   1.00
C3       0.43796    0.12377    0.93981   1.00
C3       0.44034    0.20614    0.93782   1.00
C2       0.41562    0.05988    0.91398   1.00
C2       0.41438    0.27012    0.91602   1.00
C3       0.39277    0.08038    0.88649   1.00
C3       0.38924    0.24981    0.89046   1.00
C3       0.43843    0.08242    0.93996   1.00
C3       0.43906    0.24738    0.94001   1.00
H1       0.37557    0.13385    0.86438   1.00
H1       0.36933    0.19648    0.87040   1.00
C5       0.46081    0.14480    0.96720   1.00
C5       0.46742    0.18520    0.96103   1.00
H1       0.37594    0.06545    0.86672   1.00
H1       0.37055    0.26490    0.87255   1.00
H1       0.45614    0.06820    0.95937   1.00
H1       0.45622    0.26132    0.96004   1.00
O3       0.47803    0.12539    0.99791   1.00
O3       0.49789    0.20401    0.97960   1.00
Si1      0.45546    0.12253    1.03978   1.00
Si1      0.53804    0.21221    0.95534   1.00
C6       0.48804    0.08962    1.06235   1.00
C6       0.45773    0.16902    1.06170   1.00
C6       0.40815    0.10247    1.03610   1.00
C6       0.53996    0.19807    0.90577   1.00
C6       0.54355    0.26302    0.95882   1.00
C6       0.57641    0.19023    0.98156   1.00
C6       0.49988    0.05306    1.03752   1.00
H2       0.51458    0.10709    1.06483   1.00
C6       0.47994    0.07353    1.10448   1.00
H2       0.48374    0.18142    1.04814   1.00
C6       0.42404    0.19866    1.05330   1.00
C6       0.46496    0.17164    1.10672   1.00
H2       0.41318    0.07669    1.01800   1.00
C6       0.38878    0.08728    1.07464   1.00
C6       0.37491    0.12651    1.01557   1.00
C6       0.53205    0.15429    0.89560   1.00
C6       0.51766    0.22275    0.87440   1.00
H2       0.57062    0.20288    0.89858   1.00
H2       0.52014    0.27449    0.94055   1.00
C6       0.53669    0.28122    1.00017   1.00
C6       0.58234    0.28107    0.94293   1.00
H2       0.58309    0.21125    1.00455   1.00
C6       0.56637    0.15164    1.00347   1.00
C6       0.61580    0.18256    0.95969   1.00
H2       0.51204    0.06154    1.00930   1.00
H2       0.47480    0.03410    1.03217   1.00
H2       0.52230    0.03583    1.05231   1.00
H2       0.50751    0.06892    1.11989   1.00
H2       0.46239    0.09322    1.12208   1.00
H2       0.46504    0.04536    1.10400   1.00
H2       0.43278    0.22828    1.06136   1.00
H2       0.41644    0.19968    1.02249   1.00
H2       0.39792    0.19148    1.07004   1.00
H2       0.49161    0.15638    1.11514   1.00
H2       0.46873    0.20192    1.11612   1.00
H2       0.44041    0.15950    1.12304   1.00
H2       0.38867    0.10986    1.09713   1.00
H2       0.35859    0.07792    1.07003   1.00
H2       0.40378    0.06168    1.08579   1.00
H2       0.35993    0.14598    1.03585   1.00
H2       0.38518    0.14432    0.99157   1.00
H2       0.35290    0.10672    1.00360   1.00
H2       0.50094    0.14812    0.89354   1.00
H2       0.54489    0.14691    0.86734   1.00
H2       0.54470    0.13452    0.91699   1.00
H2       0.52609    0.21375    0.84495   1.00
H2       0.48618    0.21926    0.87646   1.00
H2       0.52443    0.25378    0.87650   1.00
H2       0.53417    0.31298    0.99809   1.00
H2       0.50956    0.27065    1.01319   1.00
H2       0.56055    0.27465    1.02021   1.00
H2       0.58892    0.27084    0.91350   1.00
H2       0.58000    0.31288    0.94140   1.00
H2       0.60702    0.27415    0.96186   1.00
H2       0.55765    0.12844    0.98352   1.00
H2       0.59101    0.14119    1.02079   1.00
H2       0.54241    0.15666    1.02357   1.00
H2       0.63883    0.17456    0.98028   1.00
H2       0.61299    0.15878    0.93863   1.00
H2       0.62593    0.20843    0.94421   1.00
C4       0.41198    0.41461    0.64416   1.00
C4       0.41255    0.41415    0.68588   1.00
C3       0.38540    0.39246    0.62136   1.00
C3       0.38905    0.38889    0.70884   1.00
C3       0.43981    0.43796    0.62377   1.00
C3       0.43782    0.44034    0.70614   1.00
C2       0.41398    0.41562    0.55988   1.00
C2       0.41602    0.41438    0.77012   1.00
C3       0.38649    0.39277    0.58038   1.00
C3       0.39046    0.38924    0.74981   1.00
C3       0.43996    0.43843    0.58242   1.00
C3       0.44001    0.43906    0.74738   1.00
H1       0.36438    0.37557    0.63385   1.00
H1       0.37040    0.36933    0.69648   1.00
C5       0.46720    0.46081    0.64480   1.00
C5       0.46103    0.46742    0.68520   1.00
H1       0.36672    0.37594    0.56545   1.00
H1       0.37255    0.37055    0.76490   1.00
H1       0.45937    0.45614    0.56820   1.00
H1       0.46004    0.45622    0.76132   1.00
O3       0.49791    0.47803    0.62539   1.00
O3       0.47960    0.49789    0.70401   1.00
Si1      0.53978    0.45546    0.62253   1.00
Si1      0.45534    0.53804    0.71221   1.00
C6       0.56235    0.48804    0.58962   1.00
C6       0.56170    0.45773    0.66902   1.00
C6       0.53610    0.40815    0.60247   1.00
C6       0.40577    0.53996    0.69807   1.00
C6       0.45882    0.54355    0.76302   1.00
C6       0.48156    0.57641    0.69023   1.00
C6       0.53752    0.49988    0.55306   1.00
H2       0.56483    0.51458    0.60709   1.00
C6       0.60448    0.47994    0.57353   1.00
H2       0.54814    0.48374    0.68142   1.00
C6       0.55330    0.42404    0.69866   1.00
C6       0.60672    0.46496    0.67164   1.00
H2       0.51800    0.41318    0.57669   1.00
C6       0.57464    0.38878    0.58728   1.00
C6       0.51557    0.37491    0.62651   1.00
C6       0.39560    0.53205    0.65429   1.00
C6       0.37440    0.51766    0.72275   1.00
H2       0.39858    0.57062    0.70288   1.00
H2       0.44055    0.52014    0.77449   1.00
C6       0.50017    0.53669    0.78122   1.00
C6       0.44293    0.58234    0.78107   1.00
H2       0.50455    0.58309    0.71125   1.00
C6       0.50347    0.56637    0.65164   1.00
C6       0.45969    0.61580    0.68256   1.00
H2       0.50930    0.51204    0.56154   1.00
H2       0.53217    0.47480    0.53410   1.00
H2       0.55231    0.52230    0.53583   1.00
H2       0.61989    0.50751    0.56892   1.00
H2       0.62208    0.46239    0.59322   1.00
H2       0.60400    0.46504    0.54536   1.00
H2       0.56136    0.43278    0.72828   1.00
H2       0.52249    0.41644    0.69968   1.00
H2       0.57004    0.39792    0.69148   1.00
H2       0.61514    0.49161    0.65638   1.00
H2       0.61612    0.46873    0.70192   1.00
H2       0.62304    0.44041    0.65950   1.00
H2       0.59713    0.38867    0.60986   1.00
H2       0.57003    0.35859    0.57792   1.00
H2       0.58579    0.40378    0.56168   1.00
H2       0.53585    0.35993    0.64598   1.00
H2       0.49157    0.38518    0.64432   1.00
H2       0.50360    0.35290    0.60672   1.00
H2       0.39354    0.50094    0.64812   1.00
H2       0.36734    0.54489    0.64691   1.00
H2       0.41699    0.54470    0.63452   1.00
H2       0.34495    0.52609    0.71375   1.00
H2       0.37646    0.48618    0.71926   1.00
H2       0.37650    0.52443    0.75378   1.00
H2       0.49809    0.53417    0.81298   1.00
H2       0.51319    0.50956    0.77065   1.00
H2       0.52021    0.56055    0.77465   1.00
H2       0.41350    0.58892    0.77084   1.00
H2       0.44140    0.58000    0.81288   1.00
H2       0.46186    0.60702    0.77415   1.00
H2       0.48352    0.55765    0.62844   1.00
H2       0.52079    0.59101    0.64119   1.00
H2       0.52357    0.54241    0.65666   1.00
H2       0.48028    0.63883    0.67456   1.00
H2       0.43863    0.61299    0.65878   1.00
H2       0.44421    0.62593    0.70843   1.00
C4       0.41198    0.91539    0.68584   1.00
C4       0.41255    0.91585    0.64412   1.00
C3       0.38540    0.93754    0.70864   1.00
C3       0.38905    0.94111    0.62116   1.00
C3       0.43981    0.89204    0.70623   1.00
C3       0.43782    0.88966    0.62386   1.00
C2       0.41398    0.91438    0.77012   1.00
C2       0.41602    0.91562    0.55988   1.00
C3       0.38649    0.93723    0.74962   1.00
C3       0.39046    0.94076    0.58019   1.00
C3       0.43996    0.89157    0.74758   1.00
C3       0.44001    0.89094    0.58262   1.00
H1       0.36438    0.95443    0.69615   1.00
H1       0.37040    0.96067    0.63352   1.00
C5       0.46720    0.86919    0.68520   1.00
C5       0.46103    0.86258    0.64480   1.00
H1       0.36672    0.95406    0.76455   1.00
H1       0.37255    0.95945    0.56510   1.00
H1       0.45937    0.87386    0.76180   1.00
H1       0.46004    0.87378    0.56868   1.00
O3       0.49791    0.85197    0.70461   1.00
O3       0.47960    0.83211    0.62599   1.00
Si1      0.53978    0.87454    0.70747   1.00
Si1      0.45534    0.79196    0.61779   1.00
C6       0.56235    0.84196    0.74038   1.00
C6       0.56170    0.87227    0.66098   1.00
C6       0.53610    0.92185    0.72753   1.00
C6       0.40577    0.79004    0.63193   1.00
C6       0.45882    0.78645    0.56698   1.00
C6       0.48156    0.75359    0.63977   1.00
C6       0.53752    0.83012    0.77694   1.00
H2       0.56483    0.81542    0.72291   1.00
C6       0.60448    0.85006    0.75647   1.00
H2       0.54814    0.84626    0.64858   1.00
C6       0.55330    0.90596    0.63134   1.00
C6       0.60672    0.86504    0.65836   1.00
H2       0.51800    0.91682    0.75331   1.00
C6       0.57464    0.94122    0.74272   1.00
C6       0.51557    0.95509    0.70349   1.00
C6       0.39560    0.79795    0.67571   1.00
C6       0.37440    0.81234    0.60725   1.00
H2       0.39858    0.75938    0.62712   1.00
H2       0.44055    0.80986    0.55551   1.00
C6       0.50017    0.79331    0.54878   1.00
C6       0.44293    0.74766    0.54893   1.00
H2       0.50455    0.74691    0.61875   1.00
C6       0.50347    0.76363    0.67836   1.00
C6       0.45969    0.71420    0.64744   1.00
H2       0.50930    0.81796    0.76846   1.00
H2       0.53217    0.85520    0.79590   1.00
H2       0.55231    0.80770    0.79417   1.00
H2       0.61989    0.82249    0.76108   1.00
H2       0.62208    0.86761    0.73678   1.00
H2       0.60400    0.86496    0.78464   1.00
H2       0.56136    0.89722    0.60172   1.00
H2       0.52249    0.91356    0.63032   1.00
H2       0.57004    0.93208    0.63852   1.00
H2       0.61514    0.83839    0.67362   1.00
H2       0.61612    0.86127    0.62808   1.00
H2       0.62304    0.88959    0.67050   1.00
H2       0.59713    0.94133    0.72014   1.00
H2       0.57003    0.97141    0.75208   1.00
H2       0.58579    0.92622    0.76832   1.00
H2       0.53585    0.97007    0.68402   1.00
H2       0.49157    0.94482    0.68568   1.00
H2       0.50360    0.97710    0.72328   1.00
H2       0.39354    0.82906    0.68188   1.00
H2       0.36734    0.78511    0.68309   1.00
H2       0.41699    0.78530    0.69548   1.00
H2       0.34495    0.80391    0.61625   1.00
H2       0.37646    0.84382    0.61074   1.00
H2       0.37650    0.80557    0.57622   1.00
H2       0.49809    0.79583    0.51702   1.00
H2       0.51319    0.82044    0.55935   1.00
H2       0.52021    0.76945    0.55535   1.00
H2       0.41350    0.74108    0.55916   1.00
H2       0.44140    0.75000    0.51712   1.00
H2       0.46186    0.72298    0.55585   1.00
H2       0.48352    0.77235    0.70156   1.00
H2       0.52079    0.73899    0.68881   1.00
H2       0.52357    0.78759    0.67334   1.00
H2       0.48028    0.69117    0.65544   1.00
H2       0.43863    0.71701    0.67122   1.00
H2       0.44421    0.70407    0.62157   1.00
C4       0.41539    1.18584    0.41198   1.00
C4       0.41585    1.14412    0.41255   1.00
C3       0.43754    1.20864    0.38540   1.00
C3       0.44111    1.12116    0.38905   1.00
C3       0.39204    1.20623    0.43981   1.00
C3       0.38966    1.12386    0.43782   1.00
C2       0.41438    1.27012    0.41398   1.00
C2       0.41562    1.05988    0.41602   1.00
C3       0.43723    1.24962    0.38649   1.00
C3       0.44076    1.08019    0.39046   1.00
C3       0.39157    1.24758    0.43996   1.00
C3       0.39094    1.08262    0.44001   1.00
H1       0.45443    1.19615    0.36438   1.00
H1       0.46067    1.13352    0.37040   1.00
C5       0.36919    1.18520    0.46720   1.00
C5       0.36258    1.14480    0.46103   1.00
H1       0.45406    1.26455    0.36672   1.00
H1       0.45945    1.06510    0.37255   1.00
H1       0.37386    1.26180    0.45937   1.00
H1       0.37378    1.06868    0.46004   1.00
O3       0.35197    1.20461    0.49791   1.00
O3       0.33211    1.12599    0.47960   1.00
Si1      0.37454    1.20747    0.53978   1.00
Si1      0.29196    1.11779    0.45534   1.00
C6       0.34196    1.24038    0.56235   1.00
C6       0.37227    1.16098    0.56170   1.00
C6       0.42185    1.22753    0.53610   1.00
C6       0.29004    1.13193    0.40577   1.00
C6       0.28645    1.06698    0.45882   1.00
C6       0.25359    1.13977    0.48156   1.00
C6       0.33012    1.27694    0.53752   1.00
H2       0.31542    1.22291    0.56483   1.00
C6       0.35006    1.25647    0.60448   1.00
H2       0.34626    1.14858    0.54814   1.00
C6       0.40596    1.13134    0.55330   1.00
C6       0.36504    1.15836    0.60672   1.00
H2       0.41682    1.25331    0.51800   1.00
C6       0.44122    1.24272    0.57464   1.00
C6       0.45509    1.20349    0.51557   1.00
C6       0.29795    1.17571    0.39560   1.00
C6       0.31234    1.10725    0.37440   1.00
H2       0.25938    1.12712    0.39858   1.00
H2       0.30986    1.05551    0.44055   1.00
C6       0.29331    1.04878    0.50017   1.00
C6       0.24766    1.04893    0.44293   1.00
H2       0.24691    1.11875    0.50455   1.00
C6       0.26363    1.17836    0.50347   1.00
C6       0.21420    1.14744    0.45969   1.00
H2       0.31796    1.26846    0.50930   1.00
H2       0.35520    1.29590    0.53217   1.00
H2       0.30770    1.29417    0.55231   1.00
H2       0.32249    1.26108    0.61989   1.00
H2       0.36761    1.23678    0.62208   1.00
H2       0.36496    1.28464    0.60400   1.00
H2       0.39722    1.10172    0.56136   1.00
H2       0.41356    1.13032    0.52249   1.00
H2       0.43208    1.13852    0.57004   1.00
H2       0.33839    1.17362    0.61514   1.00
H2       0.36127    1.12808    0.61612   1.00
H2       0.38959    1.17050    0.62304   1.00
H2       0.44133    1.22014    0.59713   1.00
H2       0.47141    1.25208    0.57003   1.00
H2       0.42622    1.26832    0.58579   1.00
H2       0.47007    1.18402    0.53585   1.00
H2       0.44482    1.18568    0.49157   1.00
H2       0.47710    1.22328    0.50360   1.00
H2       0.32906    1.18188    0.39354   1.00
H2       0.28511    1.18309    0.36734   1.00
H2       0.28530    1.19548    0.41699   1.00
H2       0.30391    1.11625    0.34495   1.00
H2       0.34382    1.11074    0.37646   1.00
H2       0.30557    1.07622    0.37650   1.00
H2       0.29583    1.01702    0.49809   1.00
H2       0.32044    1.05935    0.51319   1.00
H2       0.26945    1.05535    0.52021   1.00
H2       0.24108    1.05916    0.41350   1.00
H2       0.25000    1.01712    0.44140   1.00
H2       0.22298    1.05585    0.46186   1.00
H2       0.27235    1.20156    0.48352   1.00
H2       0.23899    1.18881    0.52079   1.00
H2       0.28759    1.17334    0.52357   1.00
H2       0.19117    1.15544    0.48028   1.00
H2       0.21701    1.17122    0.43863   1.00
H2       0.20407    1.12157    0.44421   1.00
C4       0.14416    0.91198    0.41461   1.00
C4       0.18588    0.91255    0.41415   1.00
C3       0.12136    0.88540    0.39246   1.00
C3       0.20884    0.88905    0.38889   1.00
C3       0.12377    0.93981    0.43796   1.00
C3       0.20614    0.93782    0.44034   1.00
C2       0.05988    0.91398    0.41562   1.00
C2       0.27012    0.91602    0.41438   1.00
C3       0.08038    0.88649    0.39277   1.00
C3       0.24981    0.89046    0.38924   1.00
C3       0.08242    0.93996    0.43843   1.00
C3       0.24738    0.94001    0.43906   1.00
H1       0.13385    0.86438    0.37557   1.00
H1       0.19648    0.87040    0.36933   1.00
C5       0.14480    0.96720    0.46081   1.00
C5       0.18520    0.96103    0.46742   1.00
H1       0.06545    0.86672    0.37594   1.00
H1       0.26490    0.87255    0.37055   1.00
H1       0.06820    0.95937    0.45614   1.00
H1       0.26132    0.96004    0.45622   1.00
O3       0.12539    0.99791    0.47803   1.00
O3       0.20401    0.97960    0.49789   1.00
Si1      0.12253    1.03978    0.45546   1.00
Si1      0.21221    0.95534    0.53804   1.00
C6       0.08962    1.06235    0.48804   1.00
C6       0.16902    1.06170    0.45773   1.00
C6       0.10247    1.03610    0.40815   1.00
C6       0.19807    0.90577    0.53996   1.00
C6       0.26302    0.95882    0.54355   1.00
C6       0.19023    0.98156    0.57641   1.00
C6       0.05306    1.03752    0.49988   1.00
H2       0.10709    1.06483    0.51458   1.00
C6       0.07353    1.10448    0.47994   1.00
H2       0.18142    1.04814    0.48374   1.00
C6       0.19866    1.05330    0.42404   1.00
C6       0.17164    1.10672    0.46496   1.00
H2       0.07669    1.01800    0.41318   1.00
C6       0.08728    1.07464    0.38878   1.00
C6       0.12651    1.01557    0.37491   1.00
C6       0.15429    0.89560    0.53205   1.00
C6       0.22275    0.87440    0.51766   1.00
H2       0.20288    0.89858    0.57062   1.00
H2       0.27449    0.94055    0.52014   1.00
C6       0.28122    1.00017    0.53669   1.00
C6       0.28107    0.94293    0.58234   1.00
H2       0.21125    1.00455    0.58309   1.00
C6       0.15164    1.00347    0.56637   1.00
C6       0.18256    0.95969    0.61580   1.00
H2       0.06154    1.00930    0.51204   1.00
H2       0.03410    1.03217    0.47480   1.00
H2       0.03583    1.05231    0.52230   1.00
H2       0.06892    1.11989    0.50751   1.00
H2       0.09322    1.12208    0.46239   1.00
H2       0.04536    1.10400    0.46504   1.00
H2       0.22828    1.06136    0.43278   1.00
H2       0.19968    1.02249    0.41644   1.00
H2       0.19148    1.07004    0.39792   1.00
H2       0.15638    1.11514    0.49161   1.00
H2       0.20192    1.11612    0.46873   1.00
H2       0.15950    1.12304    0.44041   1.00
H2       0.10986    1.09713    0.38867   1.00
H2       0.07792    1.07003    0.35859   1.00
H2       0.06168    1.08579    0.40378   1.00
H2       0.14598    1.03585    0.35993   1.00
H2       0.14432    0.99157    0.38518   1.00
H2       0.10672    1.00360    0.35290   1.00
H2       0.14812    0.89354    0.50094   1.00
H2       0.14691    0.86734    0.54489   1.00
H2       0.13452    0.91699    0.54470   1.00
H2       0.21375    0.84495    0.52609   1.00
H2       0.21926    0.87646    0.48618   1.00
H2       0.25378    0.87650    0.52443   1.00
H2       0.31298    0.99809    0.53417   1.00
H2       0.27065    1.01319    0.50956   1.00
H2       0.27465    1.02021    0.56055   1.00
H2       0.27084    0.91350    0.58892   1.00
H2       0.31288    0.94140    0.58000   1.00
H2       0.27415    0.96186    0.60702   1.00
H2       0.12844    0.98352    0.55765   1.00
H2       0.14119    1.02079    0.59101   1.00
H2       0.15666    1.02357    0.54241   1.00
H2       0.17456    0.98028    0.63883   1.00
H2       0.15878    0.93863    0.61299   1.00
H2       0.20843    0.94421    0.62593   1.00
C4       0.68584    0.91198    0.41539   1.00
C4       0.64412    0.91255    0.41585   1.00
C3       0.70864    0.88540    0.43754   1.00
C3       0.62116    0.88905    0.44111   1.00
C3       0.70623    0.93981    0.39204   1.00
C3       0.62386    0.93782    0.38966   1.00
C2       0.77012    0.91398    0.41438   1.00
C2       0.55988    0.91602    0.41562   1.00
C3       0.74962    0.88649    0.43723   1.00
C3       0.58019    0.89046    0.44076   1.00
C3       0.74758    0.93996    0.39157   1.00
C3       0.58262    0.94001    0.39094   1.00
H1       0.69615    0.86438    0.45443   1.00
H1       0.63352    0.87040    0.46067   1.00
C5       0.68520    0.96720    0.36919   1.00
C5       0.64480    0.96103    0.36258   1.00
H1       0.76455    0.86672    0.45406   1.00
H1       0.56510    0.87255    0.45945   1.00
H1       0.76180    0.95937    0.37386   1.00
H1       0.56868    0.96004    0.37378   1.00
O3       0.70461    0.99791    0.35197   1.00
O3       0.62599    0.97960    0.33211   1.00
Si1      0.70747    1.03978    0.37454   1.00
Si1      0.61779    0.95534    0.29196   1.00
C6       0.74038    1.06235    0.34196   1.00
C6       0.66098    1.06170    0.37227   1.00
C6       0.72753    1.03610    0.42185   1.00
C6       0.63193    0.90577    0.29004   1.00
C6       0.56698    0.95882    0.28645   1.00
C6       0.63977    0.98156    0.25359   1.00
C6       0.77694    1.03752    0.33012   1.00
H2       0.72291    1.06483    0.31542   1.00
C6       0.75647    1.10448    0.35006   1.00
H2       0.64858    1.04814    0.34626   1.00
C6       0.63134    1.05330    0.40596   1.00
C6       0.65836    1.10672    0.36504   1.00
H2       0.75331    1.01800    0.41682   1.00
C6       0.74272    1.07464    0.44122   1.00
C6       0.70349    1.01557    0.45509   1.00
C6       0.67571    0.89560    0.29795   1.00
C6       0.60725    0.87440    0.31234   1.00
H2       0.62712    0.89858    0.25938   1.00
H2       0.55551    0.94055    0.30986   1.00
C6       0.54878    1.00017    0.29331   1.00
C6       0.54893    0.94293    0.24766   1.00
H2       0.61875    1.00455    0.24691   1.00
C6       0.67836    1.00347    0.26363   1.00
C6       0.64744    0.95969    0.21420   1.00
H2       0.76846    1.00930    0.31796   1.00
H2       0.79590    1.03217    0.35520   1.00
H2       0.79417    1.05231    0.30770   1.00
H2       0.76108    1.11989    0.32249   1.00
H2       0.73678    1.12208    0.36761   1.00
H2       0.78464    1.10400    0.36496   1.00
H2       0.60172    1.06136    0.39722   1.00
H2       0.63032    1.02249    0.41356   1.00
H2       0.63852    1.07004    0.43208   1.00
H2       0.67362    1.11514    0.33839   1.00
H2       0.62808    1.11612    0.36127   1.00
H2       0.67050    1.12304    0.38959   1.00
H2       0.72014    1.09713    0.44133   1.00
H2       0.75208    1.07003    0.47141   1.00
H2       0.76832    1.08579    0.42622   1.00
H2       0.68402    1.03585    0.47007   1.00
H2       0.68568    0.99157    0.44482   1.00
H2       0.72328    1.00360    0.47710   1.00
H2       0.68188    0.89354    0.32906   1.00
H2       0.68309    0.86734    0.28511   1.00
H2       0.69548    0.91699    0.28530   1.00
H2       0.61625    0.84495    0.30391   1.00
H2       0.61074    0.87646    0.34382   1.00
H2       0.57622    0.87650    0.30557   1.00
H2       0.51702    0.99809    0.29583   1.00
H2       0.55935    1.01319    0.32044   1.00
H2       0.55535    1.02021    0.26945   1.00
H2       0.55916    0.91350    0.24108   1.00
H2       0.51712    0.94140    0.25000   1.00
H2       0.55585    0.96186    0.22298   1.00
H2       0.70156    0.98352    0.27235   1.00
H2       0.68881    1.02079    0.23899   1.00
H2       0.67334    1.02357    0.28759   1.00
H2       0.65544    0.98028    0.19117   1.00
H2       0.67122    0.93863    0.21701   1.00
H2       0.62157    0.94421    0.20407   1.00
C4       0.41461    0.64416    0.41198   1.00
C4       0.41415    0.68588    0.41255   1.00
C3       0.39246    0.62136    0.38540   1.00
C3       0.38889    0.70884    0.38905   1.00
C3       0.43796    0.62377    0.43981   1.00
C3       0.44034    0.70614    0.43782   1.00
C2       0.41562    0.55988    0.41398   1.00
C2       0.41438    0.77012    0.41602   1.00
C3       0.39277    0.58038    0.38649   1.00
C3       0.38924    0.74981    0.39046   1.00
C3       0.43843    0.58242    0.43996   1.00
C3       0.43906    0.74738    0.44001   1.00
H1       0.37557    0.63385    0.36438   1.00
H1       0.36933    0.69648    0.37040   1.00
C5       0.46081    0.64480    0.46720   1.00
C5       0.46742    0.68520    0.46103   1.00
H1       0.37594    0.56545    0.36672   1.00
H1       0.37055    0.76490    0.37255   1.00
H1       0.45614    0.56820    0.45937   1.00
H1       0.45622    0.76132    0.46004   1.00
O3       0.47803    0.62539    0.49791   1.00
O3       0.49789    0.70401    0.47960   1.00
Si1      0.45546    0.62253    0.53978   1.00
Si1      0.53804    0.71221    0.45534   1.00
C6       0.48804    0.58962    0.56235   1.00
C6       0.45773    0.66902    0.56170   1.00
C6       0.40815    0.60247    0.53610   1.00
C6       0.53996    0.69807    0.40577   1.00
C6       0.54355    0.76302    0.45882   1.00
C6       0.57641    0.69023    0.48156   1.00
C6       0.49988    0.55306    0.53752   1.00
H2       0.51458    0.60709    0.56483   1.00
C6       0.47994    0.57353    0.60448   1.00
H2       0.48374    0.68142    0.54814   1.00
C6       0.42404    0.69866    0.55330   1.00
C6       0.46496    0.67164    0.60672   1.00
H2       0.41318    0.57669    0.51800   1.00
C6       0.38878    0.58728    0.57464   1.00
C6       0.37491    0.62651    0.51557   1.00
C6       0.53205    0.65429    0.39560   1.00
C6       0.51766    0.72275    0.37440   1.00
H2       0.57062    0.70288    0.39858   1.00
H2       0.52014    0.77449    0.44055   1.00
C6       0.53669    0.78122    0.50017   1.00
C6       0.58234    0.78107    0.44293   1.00
H2       0.58309    0.71125    0.50455   1.00
C6       0.56637    0.65164    0.50347   1.00
C6       0.61580    0.68256    0.45969   1.00
H2       0.51204    0.56154    0.50930   1.00
H2       0.47480    0.53410    0.53217   1.00
H2       0.52230    0.53583    0.55231   1.00
H2       0.50751    0.56892    0.61989   1.00
H2       0.46239    0.59322    0.62208   1.00
H2       0.46504    0.54536    0.60400   1.00
H2       0.43278    0.72828    0.56136   1.00
H2       0.41644    0.69968    0.52249   1.00
H2       0.39792    0.69148    0.57004   1.00
H2       0.49161    0.65638    0.61514   1.00
H2       0.46873    0.70192    0.61612   1.00
H2       0.44041    0.65950    0.62304   1.00
H2       0.38867    0.60986    0.59713   1.00
H2       0.35859    0.57792    0.57003   1.00
H2       0.40378    0.56168    0.58579   1.00
H2       0.35993    0.64598    0.53585   1.00
H2       0.38518    0.64432    0.49157   1.00
H2       0.35290    0.60672    0.50360   1.00
H2       0.50094    0.64812    0.39354   1.00
H2       0.54489    0.64691    0.36734   1.00
H2       0.54470    0.63452    0.41699   1.00
H2       0.52609    0.71375    0.34495   1.00
H2       0.48618    0.71926    0.37646   1.00
H2       0.52443    0.75378    0.37650   1.00
H2       0.53417    0.81298    0.49809   1.00
H2       0.50956    0.77065    0.51319   1.00
H2       0.56055    0.77465    0.52021   1.00
H2       0.58892    0.77084    0.41350   1.00
H2       0.58000    0.81288    0.44140   1.00
H2       0.60702    0.77415    0.46186   1.00
H2       0.55765    0.62844    0.48352   1.00
H2       0.59101    0.64119    0.52079   1.00
H2       0.54241    0.65666    0.52357   1.00
H2       0.63883    0.67456    0.48028   1.00
H2       0.61299    0.65878    0.43863   1.00
H2       0.62593    0.70843    0.44421   1.00
C4       0.41198    0.91461    0.14416   1.00
C4       0.41255    0.91415    0.18588   1.00
C3       0.38540    0.89246    0.12136   1.00
C3       0.38905    0.88889    0.20884   1.00
C3       0.43981    0.93796    0.12377   1.00
C3       0.43782    0.94034    0.20614   1.00
C2       0.41398    0.91562    0.05988   1.00
C2       0.41602    0.91438    0.27012   1.00
C3       0.38649    0.89277    0.08038   1.00
C3       0.39046    0.88924    0.24981   1.00
C3       0.43996    0.93843    0.08242   1.00
C3       0.44001    0.93906    0.24738   1.00
H1       0.36438    0.87557    0.13385   1.00
H1       0.37040    0.86933    0.19648   1.00
C5       0.46720    0.96081    0.14480   1.00
C5       0.46103    0.96742    0.18520   1.00
H1       0.36672    0.87594    0.06545   1.00
H1       0.37255    0.87055    0.26490   1.00
H1       0.45937    0.95614    0.06820   1.00
H1       0.46004    0.95622    0.26132   1.00
O3       0.49791    0.97803    0.12539   1.00
O3       0.47960    0.99789    0.20401   1.00
Si1      0.53978    0.95546    0.12253   1.00
Si1      0.45534    1.03804    0.21221   1.00
C6       0.56235    0.98804    0.08962   1.00
C6       0.56170    0.95773    0.16902   1.00
C6       0.53610    0.90815    0.10247   1.00
C6       0.40577    1.03996    0.19807   1.00
C6       0.45882    1.04355    0.26302   1.00
C6       0.48156    1.07641    0.19023   1.00
C6       0.53752    0.99988    0.05306   1.00
H2       0.56483    1.01458    0.10709   1.00
C6       0.60448    0.97994    0.07353   1.00
H2       0.54814    0.98374    0.18142   1.00
C6       0.55330    0.92404    0.19866   1.00
C6       0.60672    0.96496    0.17164   1.00
H2       0.51800    0.91318    0.07669   1.00
C6       0.57464    0.88878    0.08728   1.00
C6       0.51557    0.87491    0.12651   1.00
C6       0.39560    1.03205    0.15429   1.00
C6       0.37440    1.01766    0.22275   1.00
H2       0.39858    1.07062    0.20288   1.00
H2       0.44055    1.02014    0.27449   1.00
C6       0.50017    1.03669    0.28122   1.00
C6       0.44293    1.08234    0.28107   1.00
H2       0.50455    1.08309    0.21125   1.00
C6       0.50347    1.06637    0.15164   1.00
C6       0.45969    1.11580    0.18256   1.00
H2       0.50930    1.01204    0.06154   1.00
H2       0.53217    0.97480    0.03410   1.00
H2       0.55231    1.02230    0.03583   1.00
H2       0.61989    1.00751    0.06892   1.00
H2       0.62208    0.96239    0.09322   1.00
H2       0.60400    0.96504    0.04536   1.00
H2       0.56136    0.93278    0.22828   1.00
H2       0.52249    0.91644    0.19968   1.00
H2       0.57004    0.89792    0.19148   1.00
H2       0.61514    0.99161    0.15638   1.00
H2       0.61612    0.96873    0.20192   1.00
H2       0.62304    0.94041    0.15950   1.00
H2       0.59713    0.88867    0.10986   1.00
H2       0.57003    0.85859    0.07792   1.00
H2       0.58579    0.90378    0.06168   1.00
H2       0.53585    0.85993    0.14598   1.00
H2       0.49157    0.88518    0.14432   1.00
H2       0.50360    0.85290    0.10672   1.00
H2       0.39354    1.00094    0.14812   1.00
H2       0.36734    1.04489    0.14691   1.00
H2       0.41699    1.04470    0.13452   1.00
H2       0.34495    1.02609    0.21375   1.00
H2       0.37646    0.98618    0.21926   1.00
H2       0.37650    1.02443    0.25378   1.00
H2       0.49809    1.03417    0.31298   1.00
H2       0.51319    1.00956    0.27065   1.00
H2       0.52021    1.06055    0.27465   1.00
H2       0.41350    1.08892    0.27084   1.00
H2       0.44140    1.08000    0.31288   1.00
H2       0.46186    1.10702    0.27415   1.00
H2       0.48352    1.05765    0.12844   1.00
H2       0.52079    1.09101    0.14119   1.00
H2       0.52357    1.04241    0.15666   1.00
H2       0.48028    1.13883    0.17456   1.00
H2       0.43863    1.11299    0.15878   1.00
H2       0.44421    1.12593    0.20843   1.00
C4       0.91198    0.41539    0.68584   1.00
C4       0.91255    0.41585    0.64412   1.00
C3       0.88540    0.43754    0.70864   1.00
C3       0.88905    0.44111    0.62116   1.00
C3       0.93981    0.39204    0.70623   1.00
C3       0.93782    0.38966    0.62386   1.00
C2       0.91398    0.41438    0.77012   1.00
C2       0.91602    0.41562    0.55988   1.00
C3       0.88649    0.43723    0.74962   1.00
C3       0.89046    0.44076    0.58019   1.00
C3       0.93996    0.39157    0.74758   1.00
C3       0.94001    0.39094    0.58262   1.00
H1       0.86438    0.45443    0.69615   1.00
H1       0.87040    0.46067    0.63352   1.00
C5       0.96720    0.36919    0.68520   1.00
C5       0.96103    0.36258    0.64480   1.00
H1       0.86672    0.45406    0.76455   1.00
H1       0.87255    0.45945    0.56510   1.00
H1       0.95937    0.37386    0.76180   1.00
H1       0.96004    0.37378    0.56868   1.00
O3       0.99791    0.35197    0.70461   1.00
O3       0.97960    0.33211    0.62599   1.00
Si1      1.03978    0.37454    0.70747   1.00
Si1      0.95534    0.29196    0.61779   1.00
C6       1.06235    0.34196    0.74038   1.00
C6       1.06170    0.37227    0.66098   1.00
C6       1.03610    0.42185    0.72753   1.00
C6       0.90577    0.29004    0.63193   1.00
C6       0.95882    0.28645    0.56698   1.00
C6       0.98156    0.25359    0.63977   1.00
C6       1.03752    0.33012    0.77694   1.00
H2       1.06483    0.31542    0.72291   1.00
C6       1.10448    0.35006    0.75647   1.00
H2       1.04814    0.34626    0.64858   1.00
C6       1.05330    0.40596    0.63134   1.00
C6       1.10672    0.36504    0.65836   1.00
H2       1.01800    0.41682    0.75331   1.00
C6       1.07464    0.44122    0.74272   1.00
C6       1.01557    0.45509    0.70349   1.00
C6       0.89560    0.29795    0.67571   1.00
C6       0.87440    0.31234    0.60725   1.00
H2       0.89858    0.25938    0.62712   1.00
H2       0.94055    0.30986    0.55551   1.00
C6       1.00017    0.29331    0.54878   1.00
C6       0.94293    0.24766    0.54893   1.00
H2       1.00455    0.24691    0.61875   1.00
C6       1.00347    0.26363    0.67836   1.00
C6       0.95969    0.21420    0.64744   1.00
H2       1.00930    0.31796    0.76846   1.00
H2       1.03217    0.35520    0.79590   1.00
H2       1.05231    0.30770    0.79417   1.00
H2       1.11989    0.32249    0.76108   1.00
H2       1.12208    0.36761    0.73678   1.00
H2       1.10400    0.36496    0.78464   1.00
H2       1.06136    0.39722    0.60172   1.00
H2       1.02249    0.41356    0.63032   1.00
H2       1.07004    0.43208    0.63852   1.00
H2       1.11514    0.33839    0.67362   1.00
H2       1.11612    0.36127    0.62808   1.00
H2       1.12304    0.38959    0.67050   1.00
H2       1.09713    0.44133    0.72014   1.00
H2       1.07003    0.47141    0.75208   1.00
H2       1.08579    0.42622    0.76832   1.00
H2       1.03585    0.47007    0.68402   1.00
H2       0.99157    0.44482    0.68568   1.00
H2       1.00360    0.47710    0.72328   1.00
H2       0.89354    0.32906    0.68188   1.00
H2       0.86734    0.28511    0.68309   1.00
H2       0.91699    0.28530    0.69548   1.00
H2       0.84495    0.30391    0.61625   1.00
H2       0.87646    0.34382    0.61074   1.00
H2       0.87650    0.30557    0.57622   1.00
H2       0.99809    0.29583    0.51702   1.00
H2       1.01319    0.32044    0.55935   1.00
H2       1.02021    0.26945    0.55535   1.00
H2       0.91350    0.24108    0.55916   1.00
H2       0.94140    0.25000    0.51712   1.00
H2       0.96186    0.22298    0.55585   1.00
H2       0.98352    0.27235    0.70156   1.00
H2       1.02079    0.23899    0.68881   1.00
H2       1.02357    0.28759    0.67334   1.00
H2       0.98028    0.19117    0.65544   1.00
H2       0.93863    0.21701    0.67122   1.00
H2       0.94421    0.20407    0.62157   1.00
C4       0.91539    0.68584    0.41198   1.00
C4       0.91585    0.64412    0.41255   1.00
C3       0.93754    0.70864    0.38540   1.00
C3       0.94111    0.62116    0.38905   1.00
C3       0.89204    0.70623    0.43981   1.00
C3       0.88966    0.62386    0.43782   1.00
C2       0.91438    0.77012    0.41398   1.00
C2       0.91562    0.55988    0.41602   1.00
C3       0.93723    0.74962    0.38649   1.00
C3       0.94076    0.58019    0.39046   1.00
C3       0.89157    0.74758    0.43996   1.00
C3       0.89094    0.58262    0.44001   1.00
H1       0.95443    0.69615    0.36438   1.00
H1       0.96067    0.63352    0.37040   1.00
C5       0.86919    0.68520    0.46720   1.00
C5       0.86258    0.64480    0.46103   1.00
H1       0.95406    0.76455    0.36672   1.00
H1       0.95945    0.56510    0.37255   1.00
H1       0.87386    0.76180    0.45937   1.00
H1       0.87378    0.56868    0.46004   1.00
O3       0.85197    0.70461    0.49791   1.00
O3       0.83211    0.62599    0.47960   1.00
Si1      0.87454    0.70747    0.53978   1.00
Si1      0.79196    0.61779    0.45534   1.00
C6       0.84196    0.74038    0.56235   1.00
C6       0.87227    0.66098    0.56170   1.00
C6       0.92185    0.72753    0.53610   1.00
C6       0.79004    0.63193    0.40577   1.00
C6       0.78645    0.56698    0.45882   1.00
C6       0.75359    0.63977    0.48156   1.00
C6       0.83012    0.77694    0.53752   1.00
H2       0.81542    0.72291    0.56483   1.00
C6       0.85006    0.75647    0.60448   1.00
H2       0.84626    0.64858    0.54814   1.00
C6       0.90596    0.63134    0.55330   1.00
C6       0.86504    0.65836    0.60672   1.00
H2       0.91682    0.75331    0.51800   1.00
C6       0.94122    0.74272    0.57464   1.00
C6       0.95509    0.70349    0.51557   1.00
C6       0.79795    0.67571    0.39560   1.00
C6       0.81234    0.60725    0.37440   1.00
H2       0.75938    0.62712    0.39858   1.00
H2       0.80986    0.55551    0.44055   1.00
C6       0.79331    0.54878    0.50017   1.00
C6       0.74766    0.54893    0.44293   1.00
H2       0.74691    0.61875    0.50455   1.00
C6       0.76363    0.67836    0.50347   1.00
C6       0.71420    0.64744    0.45969   1.00
H2       0.81796    0.76846    0.50930   1.00
H2       0.85520    0.79590    0.53217   1.00
H2       0.80770    0.79417    0.55231   1.00
H2       0.82249    0.76108    0.61989   1.00
H2       0.86761    0.73678    0.62208   1.00
H2       0.86496    0.78464    0.60400   1.00
H2       0.89722    0.60172    0.56136   1.00
H2       0.91356    0.63032    0.52249   1.00
H2       0.93208    0.63852    0.57004   1.00
H2       0.83839    0.67362    0.61514   1.00
H2       0.86127    0.62808    0.61612   1.00
H2       0.88959    0.67050    0.62304   1.00
H2       0.94133    0.72014    0.59713   1.00
H2       0.97141    0.75208    0.57003   1.00
H2       0.92622    0.76832    0.58579   1.00
H2       0.97007    0.68402    0.53585   1.00
H2       0.94482    0.68568    0.49157   1.00
H2       0.97710    0.72328    0.50360   1.00
H2       0.82906    0.68188    0.39354   1.00
H2       0.78511    0.68309    0.36734   1.00
H2       0.78530    0.69548    0.41699   1.00
H2       0.80391    0.61625    0.34495   1.00
H2       0.84382    0.61074    0.37646   1.00
H2       0.80557    0.57622    0.37650   1.00
H2       0.79583    0.51702    0.49809   1.00
H2       0.82044    0.55935    0.51319   1.00
H2       0.76945    0.55535    0.52021   1.00
H2       0.74108    0.55916    0.41350   1.00
H2       0.75000    0.51712    0.44140   1.00
H2       0.72298    0.55585    0.46186   1.00
H2       0.77235    0.70156    0.48352   1.00
H2       0.73899    0.68881    0.52079   1.00
H2       0.78759    0.67334    0.52357   1.00
H2       0.69117    0.65544    0.48028   1.00
H2       0.71701    0.67122    0.43863   1.00
H2       0.70407    0.62157    0.44421   1.00
C4       0.64416    0.41198    0.41461   1.00
C4       0.68588    0.41255    0.41415   1.00
C3       0.62136    0.38540    0.39246   1.00
C3       0.70884    0.38905    0.38889   1.00
C3       0.62377    0.43981    0.43796   1.00
C3       0.70614    0.43782    0.44034   1.00
C2       0.55988    0.41398    0.41562   1.00
C2       0.77012    0.41602    0.41438   1.00
C3       0.58038    0.38649    0.39277   1.00
C3       0.74981    0.39046    0.38924   1.00
C3       0.58242    0.43996    0.43843   1.00
C3       0.74738    0.44001    0.43906   1.00
H1       0.63385    0.36438    0.37557   1.00
H1       0.69648    0.37040    0.36933   1.00
C5       0.64480    0.46720    0.46081   1.00
C5       0.68520    0.46103    0.46742   1.00
H1       0.56545    0.36672    0.37594   1.00
H1       0.76490    0.37255    0.37055   1.00
H1       0.56820    0.45937    0.45614   1.00
H1       0.76132    0.46004    0.45622   1.00
O3       0.62539    0.49791    0.47803   1.00
O3       0.70401    0.47960    0.49789   1.00
Si1      0.62253    0.53978    0.45546   1.00
Si1      0.71221    0.45534    0.53804   1.00
C6       0.58962    0.56235    0.48804   1.00
C6       0.66902    0.56170    0.45773   1.00
C6       0.60247    0.53610    0.40815   1.00
C6       0.69807    0.40577    0.53996   1.00
C6       0.76302    0.45882    0.54355   1.00
C6       0.69023    0.48156    0.57641   1.00
C6       0.55306    0.53752    0.49988   1.00
H2       0.60709    0.56483    0.51458   1.00
C6       0.57353    0.60448    0.47994   1.00
H2       0.68142    0.54814    0.48374   1.00
C6       0.69866    0.55330    0.42404   1.00
C6       0.67164    0.60672    0.46496   1.00
H2       0.57669    0.51800    0.41318   1.00
C6       0.58728    0.57464    0.38878   1.00
C6       0.62651    0.51557    0.37491   1.00
C6       0.65429    0.39560    0.53205   1.00
C6       0.72275    0.37440    0.51766   1.00
H2       0.70288    0.39858    0.57062   1.00
H2       0.77449    0.44055    0.52014   1.00
C6       0.78122    0.50017    0.53669   1.00
C6       0.78107    0.44293    0.58234   1.00
H2       0.71125    0.50455    0.58309   1.00
C6       0.65164    0.50347    0.56637   1.00
C6       0.68256    0.45969    0.61580   1.00
H2       0.56154    0.50930    0.51204   1.00
H2       0.53410    0.53217    0.47480   1.00
H2       0.53583    0.55231    0.52230   1.00
H2       0.56892    0.61989    0.50751   1.00
H2       0.59322    0.62208    0.46239   1.00
H2       0.54536    0.60400    0.46504   1.00
H2       0.72828    0.56136    0.43278   1.00
H2       0.69968    0.52249    0.41644   1.00
H2       0.69148    0.57004    0.39792   1.00
H2       0.65638    0.61514    0.49161   1.00
H2       0.70192    0.61612    0.46873   1.00
H2       0.65950    0.62304    0.44041   1.00
H2       0.60986    0.59713    0.38867   1.00
H2       0.57792    0.57003    0.35859   1.00
H2       0.56168    0.58579    0.40378   1.00
H2       0.64598    0.53585    0.35993   1.00
H2       0.64432    0.49157    0.38518   1.00
H2       0.60672    0.50360    0.35290   1.00
H2       0.64812    0.39354    0.50094   1.00
H2       0.64691    0.36734    0.54489   1.00
H2       0.63452    0.41699    0.54470   1.00
H2       0.71375    0.34495    0.52609   1.00
H2       0.71926    0.37646    0.48618   1.00
H2       0.75378    0.37650    0.52443   1.00
H2       0.81298    0.49809    0.53417   1.00
H2       0.77065    0.51319    0.50956   1.00
H2       0.77465    0.52021    0.56055   1.00
H2       0.77084    0.41350    0.58892   1.00
H2       0.81288    0.44140    0.58000   1.00
H2       0.77415    0.46186    0.60702   1.00
H2       0.62844    0.48352    0.55765   1.00
H2       0.64119    0.52079    0.59101   1.00
H2       0.65666    0.52357    0.54241   1.00
H2       0.67456    0.48028    0.63883   1.00
H2       0.65878    0.43863    0.61299   1.00
H2       0.70843    0.44421    0.62593   1.00
C4       1.18584    0.41198    0.41539   1.00
C4       1.14412    0.41255    0.41585   1.00
C3       1.20864    0.38540    0.43754   1.00
C3       1.12116    0.38905    0.44111   1.00
C3       1.20623    0.43981    0.39204   1.00
C3       1.12386    0.43782    0.38966   1.00
C2       1.27012    0.41398    0.41438   1.00
C2       1.05988    0.41602    0.41562   1.00
C3       1.24962    0.38649    0.43723   1.00
C3       1.08019    0.39046    0.44076   1.00
C3       1.24758    0.43996    0.39157   1.00
C3       1.08262    0.44001    0.39094   1.00
H1       1.19615    0.36438    0.45443   1.00
H1       1.13352    0.37040    0.46067   1.00
C5       1.18520    0.46720    0.36919   1.00
C5       1.14480    0.46103    0.36258   1.00
H1       1.26455    0.36672    0.45406   1.00
H1       1.06510    0.37255    0.45945   1.00
H1       1.26180    0.45937    0.37386   1.00
H1       1.06868    0.46004    0.37378   1.00
O3       1.20461    0.49791    0.35197   1.00
O3       1.12599    0.47960    0.33211   1.00
Si1      1.20747    0.53978    0.37454   1.00
Si1      1.11779    0.45534    0.29196   1.00
C6       1.24038    0.56235    0.34196   1.00
C6       1.16098    0.56170    0.37227   1.00
C6       1.22753    0.53610    0.42185   1.00
C6       1.13193    0.40577    0.29004   1.00
C6       1.06698    0.45882    0.28645   1.00
C6       1.13977    0.48156    0.25359   1.00
C6       1.27694    0.53752    0.33012   1.00
H2       1.22291    0.56483    0.31542   1.00
C6       1.25647    0.60448    0.35006   1.00
H2       1.14858    0.54814    0.34626   1.00
C6       1.13134    0.55330    0.40596   1.00
C6       1.15836    0.60672    0.36504   1.00
H2       1.25331    0.51800    0.41682   1.00
C6       1.24272    0.57464    0.44122   1.00
C6       1.20349    0.51557    0.45509   1.00
C6       1.17571    0.39560    0.29795   1.00
C6       1.10725    0.37440    0.31234   1.00
H2       1.12712    0.39858    0.25938   1.00
H2       1.05551    0.44055    0.30986   1.00
C6       1.04878    0.50017    0.29331   1.00
C6       1.04893    0.44293    0.24766   1.00
H2       1.11875    0.50455    0.24691   1.00
C6       1.17836    0.50347    0.26363   1.00
C6       1.14744    0.45969    0.21420   1.00
H2       1.26846    0.50930    0.31796   1.00
H2       1.29590    0.53217    0.35520   1.00
H2       1.29417    0.55231    0.30770   1.00
H2       1.26108    0.61989    0.32249   1.00
H2       1.23678    0.62208    0.36761   1.00
H2       1.28464    0.60400    0.36496   1.00
H2       1.10172    0.56136    0.39722   1.00
H2       1.13032    0.52249    0.41356   1.00
H2       1.13852    0.57004    0.43208   1.00
H2       1.17362    0.61514    0.33839   1.00
H2       1.12808    0.61612    0.36127   1.00
H2       1.17050    0.62304    0.38959   1.00
H2       1.22014    0.59713    0.44133   1.00
H2       1.25208    0.57003    0.47141   1.00
H2       1.26832    0.58579    0.42622   1.00
H2       1.18402    0.53585    0.47007   1.00
H2       1.18568    0.49157    0.44482   1.00
H2       1.22328    0.50360    0.47710   1.00
H2       1.18188    0.39354    0.32906   1.00
H2       1.18309    0.36734    0.28511   1.00
H2       1.19548    0.41699    0.28530   1.00
H2       1.11625    0.34495    0.30391   1.00
H2       1.11074    0.37646    0.34382   1.00
H2       1.07622    0.37650    0.30557   1.00
H2       1.01702    0.49809    0.29583   1.00
H2       1.05935    0.51319    0.32044   1.00
H2       1.05535    0.52021    0.26945   1.00
H2       1.05916    0.41350    0.24108   1.00
H2       1.01712    0.44140    0.25000   1.00
H2       1.05585    0.46186    0.22298   1.00
H2       1.20156    0.48352    0.27235   1.00
H2       1.18881    0.52079    0.23899   1.00
H2       1.17334    0.52357    0.28759   1.00
H2       1.15544    0.48028    0.19117   1.00
H2       1.17122    0.43863    0.21701   1.00
H2       1.12157    0.44421    0.20407   1.00
C4       0.91461    0.14416    0.41198   1.00
C4       0.91415    0.18588    0.41255   1.00
C3       0.89246    0.12136    0.38540   1.00
C3       0.88889    0.20884    0.38905   1.00
C3       0.93796    0.12377    0.43981   1.00
C3       0.94034    0.20614    0.43782   1.00
C2       0.91562    0.05988    0.41398   1.00
C2       0.91438    0.27012    0.41602   1.00
C3       0.89277    0.08038    0.38649   1.00
C3       0.88924    0.24981    0.39046   1.00
C3       0.93843    0.08242    0.43996   1.00
C3       0.93906    0.24738    0.44001   1.00
H1       0.87557    0.13385    0.36438   1.00
H1       0.86933    0.19648    0.37040   1.00
C5       0.96081    0.14480    0.46720   1.00
C5       0.96742    0.18520    0.46103   1.00
H1       0.87594    0.06545    0.36672   1.00
H1       0.87055    0.26490    0.37255   1.00
H1       0.95614    0.06820    0.45937   1.00
H1       0.95622    0.26132    0.46004   1.00
O3       0.97803    0.12539    0.49791   1.00
O3       0.99789    0.20401    0.47960   1.00
Si1      0.95546    0.12253    0.53978   1.00
Si1      1.03804    0.21221    0.45534   1.00
C6       0.98804    0.08962    0.56235   1.00
C6       0.95773    0.16902    0.56170   1.00
C6       0.90815    0.10247    0.53610   1.00
C6       1.03996    0.19807    0.40577   1.00
C6       1.04355    0.26302    0.45882   1.00
C6       1.07641    0.19023    0.48156   1.00
C6       0.99988    0.05306    0.53752   1.00
H2       1.01458    0.10709    0.56483   1.00
C6       0.97994    0.07353    0.60448   1.00
H2       0.98374    0.18142    0.54814   1.00
C6       0.92404    0.19866    0.55330   1.00
C6       0.96496    0.17164    0.60672   1.00
H2       0.91318    0.07669    0.51800   1.00
C6       0.88878    0.08728    0.57464   1.00
C6       0.87491    0.12651    0.51557   1.00
C6       1.03205    0.15429    0.39560   1.00
C6       1.01766    0.22275    0.37440   1.00
H2       1.07062    0.20288    0.39858   1.00
H2       1.02014    0.27449    0.44055   1.00
C6       1.03669    0.28122    0.50017   1.00
C6       1.08234    0.28107    0.44293   1.00
H2       1.08309    0.21125    0.50455   1.00
C6       1.06637    0.15164    0.50347   1.00
C6       1.11580    0.18256    0.45969   1.00
H2       1.01204    0.06154    0.50930   1.00
H2       0.97480    0.03410    0.53217   1.00
H2       1.02230    0.03583    0.55231   1.00
H2       1.00751    0.06892    0.61989   1.00
H2       0.96239    0.09322    0.62208   1.00
H2       0.96504    0.04536    0.60400   1.00
H2       0.93278    0.22828    0.56136   1.00
H2       0.91644    0.19968    0.52249   1.00
H2       0.89792    0.19148    0.57004   1.00
H2       0.99161    0.15638    0.61514   1.00
H2       0.96873    0.20192    0.61612   1.00
H2       0.94041    0.15950    0.62304   1.00
H2       0.88867    0.10986    0.59713   1.00
H2       0.85859    0.07792    0.57003   1.00
H2       0.90378    0.06168    0.58579   1.00
H2       0.85993    0.14598    0.53585   1.00
H2       0.88518    0.14432    0.49157   1.00
H2       0.85290    0.10672    0.50360   1.00
H2       1.00094    0.14812    0.39354   1.00
H2       1.04489    0.14691    0.36734   1.00
H2       1.04470    0.13452    0.41699   1.00
H2       1.02609    0.21375    0.34495   1.00
H2       0.98618    0.21926    0.37646   1.00
H2       1.02443    0.25378    0.37650   1.00
H2       1.03417    0.31298    0.49809   1.00
H2       1.00956    0.27065    0.51319   1.00
H2       1.06055    0.27465    0.52021   1.00
H2       1.08892    0.27084    0.41350   1.00
H2       1.08000    0.31288    0.44140   1.00
H2       1.10702    0.27415    0.46186   1.00
H2       1.05765    0.12844    0.48352   1.00
H2       1.09101    0.14119    0.52079   1.00
H2       1.04241    0.15666    0.52357   1.00
H2       1.13883    0.17456    0.48028   1.00
H2       1.11299    0.15878    0.43863   1.00
H2       1.12593    0.20843    0.44421   1.00
C4       0.91198    0.41461    0.14416   1.00
C4       0.91255    0.41415    0.18588   1.00
C3       0.88540    0.39246    0.12136   1.00
C3       0.88905    0.38889    0.20884   1.00
C3       0.93981    0.43796    0.12377   1.00
C3       0.93782    0.44034    0.20614   1.00
C2       0.91398    0.41562    0.05988   1.00
C2       0.91602    0.41438    0.27012   1.00
C3       0.88649    0.39277    0.08038   1.00
C3       0.89046    0.38924    0.24981   1.00
C3       0.93996    0.43843    0.08242   1.00
C3       0.94001    0.43906    0.24738   1.00
H1       0.86438    0.37557    0.13385   1.00
H1       0.87040    0.36933    0.19648   1.00
C5       0.96720    0.46081    0.14480   1.00
C5       0.96103    0.46742    0.18520   1.00
H1       0.86672    0.37594    0.06545   1.00
H1       0.87255    0.37055    0.26490   1.00
H1       0.95937    0.45614    0.06820   1.00
H1       0.96004    0.45622    0.26132   1.00
O3       0.99791    0.47803    0.12539   1.00
O3       0.97960    0.49789    0.20401   1.00
Si1      1.03978    0.45546    0.12253   1.00
Si1      0.95534    0.53804    0.21221   1.00
C6       1.06235    0.48804    0.08962   1.00
C6       1.06170    0.45773    0.16902   1.00
C6       1.03610    0.40815    0.10247   1.00
C6       0.90577    0.53996    0.19807   1.00
C6       0.95882    0.54355    0.26302   1.00
C6       0.98156    0.57641    0.19023   1.00
C6       1.03752    0.49988    0.05306   1.00
H2       1.06483    0.51458    0.10709   1.00
C6       1.10448    0.47994    0.07353   1.00
H2       1.04814    0.48374    0.18142   1.00
C6       1.05330    0.42404    0.19866   1.00
C6       1.10672    0.46496    0.17164   1.00
H2       1.01800    0.41318    0.07669   1.00
C6       1.07464    0.38878    0.08728   1.00
C6       1.01557    0.37491    0.12651   1.00
C6       0.89560    0.53205    0.15429   1.00
C6       0.87440    0.51766    0.22275   1.00
H2       0.89858    0.57062    0.20288   1.00
H2       0.94055    0.52014    0.27449   1.00
C6       1.00017    0.53669    0.28122   1.00
C6       0.94293    0.58234    0.28107   1.00
H2       1.00455    0.58309    0.21125   1.00
C6       1.00347    0.56637    0.15164   1.00
C6       0.95969    0.61580    0.18256   1.00
H2       1.00930    0.51204    0.06154   1.00
H2       1.03217    0.47480    0.03410   1.00
H2       1.05231    0.52230    0.03583   1.00
H2       1.11989    0.50751    0.06892   1.00
H2       1.12208    0.46239    0.09322   1.00
H2       1.10400    0.46504    0.04536   1.00
H2       1.06136    0.43278    0.22828   1.00
H2       1.02249    0.41644    0.19968   1.00
H2       1.07004    0.39792    0.19148   1.00
H2       1.11514    0.49161    0.15638   1.00
H2       1.11612    0.46873    0.20192   1.00
H2       1.12304    0.44041    0.15950   1.00
H2       1.09713    0.38867    0.10986   1.00
H2       1.07003    0.35859    0.07792   1.00
H2       1.08579    0.40378    0.06168   1.00
H2       1.03585    0.35993    0.14598   1.00
H2       0.99157    0.38518    0.14432   1.00
H2       1.00360    0.35290    0.10672   1.00
H2       0.89354    0.50094    0.14812   1.00
H2       0.86734    0.54489    0.14691   1.00
H2       0.91699    0.54470    0.13452   1.00
H2       0.84495    0.52609    0.21375   1.00
H2       0.87646    0.48618    0.21926   1.00
H2       0.87650    0.52443    0.25378   1.00
H2       0.99809    0.53417    0.31298   1.00
H2       1.01319    0.50956    0.27065   1.00
H2       1.02021    0.56055    0.27465   1.00
H2       0.91350    0.58892    0.27084   1.00
H2       0.94140    0.58000    0.31288   1.00
H2       0.96186    0.60702    0.27415   1.00
H2       0.98352    0.55765    0.12844   1.00
H2       1.02079    0.59101    0.14119   1.00
H2       1.02357    0.54241    0.15666   1.00
H2       0.98028    0.63883    0.17456   1.00
H2       0.93863    0.61299    0.15878   1.00
H2       0.94421    0.62593    0.20843   1.00
