data_IRMOF10_SG202_interpen_Ligand12cp_label_x.

_audit_creation_method             'generated by an auxiliary program of Tobunporous'

_symmetry_space_group_name_H-M     'P 1'
_symmetry_Int_Tables_number        1
_symmetry_cell_setting             triclinic

_cell_length_a                    34.2800
_cell_length_b                    34.2800
_cell_length_c                    34.2800
_cell_angle_alpha                 90.0000
_cell_angle_beta                  90.0000
_cell_angle_gamma                 90.0000

loop_
_atom_site_label
_atom_site_fract_x
_atom_site_fract_y
_atom_site_fract_z
_atom_site_occupancy
O1       0.75000    0.75000    0.75000   1.00
Zn1      0.71720    0.78280    0.78280   1.00
Zn1      0.78280    0.71720    0.78280   1.00
Zn1      0.78280    0.78280    0.71720   1.00
Zn1      0.71720    0.71720    0.71720   1.00
O2       0.72650    0.77350    0.83820   1.00
O2       0.72650    0.83820    0.77350   1.00
O2       0.66180    0.77350    0.77350   1.00
O2       0.77350    0.72650    0.83820   1.00
O2       0.83820    0.72650    0.77350   1.00
O2       0.77350    0.66180    0.77350   1.00
O2       0.77350    0.83820    0.72650   1.00
O2       0.83820    0.77350    0.72650   1.00
O2       0.77350    0.77350    0.66180   1.00
O2       0.66180    0.72650    0.72650   1.00
O2       0.72650    0.66180    0.72650   1.00
O2       0.72650    0.72650    0.66180   1.00
C1       0.75000    0.75000    0.85520   1.00
C1       0.75000    0.85520    0.75000   1.00
C1       0.64480    0.75000    0.75000   1.00
C1       0.85520    0.75000    0.75000   1.00
C1       0.75000    0.64480    0.75000   1.00
C1       0.75000    0.75000    0.64480   1.00
O1       0.25000    0.25000    0.75000   1.00
Zn1      0.21720    0.28280    0.78280   1.00
Zn1      0.28280    0.21720    0.78280   1.00
Zn1      0.28280    0.28280    0.71720   1.00
Zn1      0.21720    0.21720    0.71720   1.00
O2       0.22650    0.27350    0.83820   1.00
O2       0.22650    0.33820    0.77350   1.00
O2       0.16180    0.27350    0.77350   1.00
O2       0.27350    0.22650    0.83820   1.00
O2       0.33820    0.22650    0.77350   1.00
O2       0.27350    0.16180    0.77350   1.00
O2       0.27350    0.33820    0.72650   1.00
O2       0.33820    0.27350    0.72650   1.00
O2       0.27350    0.27350    0.66180   1.00
O2       0.16180    0.22650    0.72650   1.00
O2       0.22650    0.16180    0.72650   1.00
O2       0.22650    0.22650    0.66180   1.00
C1       0.25000    0.25000    0.85520   1.00
C1       0.25000    0.35520    0.75000   1.00
C1       0.14480    0.25000    0.75000   1.00
C1       0.35520    0.25000    0.75000   1.00
C1       0.25000    0.14480    0.75000   1.00
C1       0.25000    0.25000    0.64480   1.00
O1       0.25000    0.75000    0.25000   1.00
Zn1      0.21720    0.78280    0.28280   1.00
Zn1      0.28280    0.71720    0.28280   1.00
Zn1      0.28280    0.78280    0.21720   1.00
Zn1      0.21720    0.71720    0.21720   1.00
O2       0.22650    0.77350    0.33820   1.00
O2       0.22650    0.83820    0.27350   1.00
O2       0.16180    0.77350    0.27350   1.00
O2       0.27350    0.72650    0.33820   1.00
O2       0.33820    0.72650    0.27350   1.00
O2       0.27350    0.66180    0.27350   1.00
O2       0.27350    0.83820    0.22650   1.00
O2       0.33820    0.77350    0.22650   1.00
O2       0.27350    0.77350    0.16180   1.00
O2       0.16180    0.72650    0.22650   1.00
O2       0.22650    0.66180    0.22650   1.00
O2       0.22650    0.72650    0.16180   1.00
C1       0.25000    0.75000    0.35520   1.00
C1       0.25000    0.85520    0.25000   1.00
C1       0.14480    0.75000    0.25000   1.00
C1       0.35520    0.75000    0.25000   1.00
C1       0.25000    0.64480    0.25000   1.00
C1       0.25000    0.75000    0.14480   1.00
O1       0.75000    0.25000    0.25000   1.00
Zn1      0.71720    0.28280    0.28280   1.00
Zn1      0.78280    0.21720    0.28280   1.00
Zn1      0.78280    0.28280    0.21720   1.00
Zn1      0.71720    0.21720    0.21720   1.00
O2       0.72650    0.27350    0.33820   1.00
O2       0.72650    0.33820    0.27350   1.00
O2       0.66180    0.27350    0.27350   1.00
O2       0.77350    0.22650    0.33820   1.00
O2       0.83820    0.22650    0.27350   1.00
O2       0.77350    0.16180    0.27350   1.00
O2       0.77350    0.33820    0.22650   1.00
O2       0.83820    0.27350    0.22650   1.00
O2       0.77350    0.27350    0.16180   1.00
O2       0.66180    0.22650    0.22650   1.00
O2       0.72650    0.16180    0.22650   1.00
O2       0.72650    0.22650    0.16180   1.00
C1       0.75000    0.25000    0.35520   1.00
C1       0.75000    0.35520    0.25000   1.00
C1       0.64480    0.25000    0.25000   1.00
C1       0.85520    0.25000    0.25000   1.00
C1       0.75000    0.14480    0.25000   1.00
C1       0.75000    0.25000    0.14480   1.00
O1       0.25000    0.25000    0.25000   1.00
Zn1      0.28280    0.21720    0.21720   1.00
Zn1      0.21720    0.28280    0.21720   1.00
Zn1      0.21720    0.21720    0.28280   1.00
Zn1      0.28280    0.28280    0.28280   1.00
O2       0.27350    0.22650    0.16180   1.00
O2       0.27350    0.16180    0.22650   1.00
O2       0.33820    0.22650    0.22650   1.00
O2       0.22650    0.27350    0.16180   1.00
O2       0.16180    0.27350    0.22650   1.00
O2       0.22650    0.33820    0.22650   1.00
O2       0.22650    0.16180    0.27350   1.00
O2       0.16180    0.22650    0.27350   1.00
O2       0.22650    0.22650    0.33820   1.00
O2       0.33820    0.27350    0.27350   1.00
O2       0.27350    0.33820    0.27350   1.00
O2       0.27350    0.27350    0.33820   1.00
C1       0.25000    0.25000    0.14480   1.00
C1       0.25000    0.14480    0.25000   1.00
C1       0.35520    0.25000    0.25000   1.00
C1       0.14480    0.25000    0.25000   1.00
C1       0.25000    0.35520    0.25000   1.00
C1       0.25000    0.25000    0.35520   1.00
O1       0.75000    0.75000    0.25000   1.00
Zn1      0.78280    0.71720    0.21720   1.00
Zn1      0.71720    0.78280    0.21720   1.00
Zn1      0.71720    0.71720    0.28280   1.00
Zn1      0.78280    0.78280    0.28280   1.00
O2       0.77350    0.72650    0.16180   1.00
O2       0.77350    0.66180    0.22650   1.00
O2       0.83820    0.72650    0.22650   1.00
O2       0.72650    0.77350    0.16180   1.00
O2       0.66180    0.77350    0.22650   1.00
O2       0.72650    0.83820    0.22650   1.00
O2       0.72650    0.66180    0.27350   1.00
O2       0.66180    0.72650    0.27350   1.00
O2       0.72650    0.72650    0.33820   1.00
O2       0.83820    0.77350    0.27350   1.00
O2       0.77350    0.83820    0.27350   1.00
O2       0.77350    0.77350    0.33820   1.00
C1       0.75000    0.75000    0.14480   1.00
C1       0.75000    0.64480    0.25000   1.00
C1       0.85520    0.75000    0.25000   1.00
C1       0.64480    0.75000    0.25000   1.00
C1       0.75000    0.85520    0.25000   1.00
C1       0.75000    0.75000    0.35520   1.00
O1       0.75000    0.25000    0.75000   1.00
Zn1      0.78280    0.21720    0.71720   1.00
Zn1      0.71720    0.28280    0.71720   1.00
Zn1      0.71720    0.21720    0.78280   1.00
Zn1      0.78280    0.28280    0.78280   1.00
O2       0.77350    0.22650    0.66180   1.00
O2       0.77350    0.16180    0.72650   1.00
O2       0.83820    0.22650    0.72650   1.00
O2       0.72650    0.27350    0.66180   1.00
O2       0.66180    0.27350    0.72650   1.00
O2       0.72650    0.33820    0.72650   1.00
O2       0.72650    0.16180    0.77350   1.00
O2       0.66180    0.22650    0.77350   1.00
O2       0.72650    0.22650    0.83820   1.00
O2       0.83820    0.27350    0.77350   1.00
O2       0.77350    0.33820    0.77350   1.00
O2       0.77350    0.27350    0.83820   1.00
C1       0.75000    0.25000    0.64480   1.00
C1       0.75000    0.14480    0.75000   1.00
C1       0.85520    0.25000    0.75000   1.00
C1       0.64480    0.25000    0.75000   1.00
C1       0.75000    0.35520    0.75000   1.00
C1       0.75000    0.25000    0.85520   1.00
O1       0.25000    0.75000    0.75000   1.00
Zn1      0.28280    0.71720    0.71720   1.00
Zn1      0.21720    0.78280    0.71720   1.00
Zn1      0.21720    0.71720    0.78280   1.00
Zn1      0.28280    0.78280    0.78280   1.00
O2       0.27350    0.72650    0.66180   1.00
O2       0.27350    0.66180    0.72650   1.00
O2       0.33820    0.72650    0.72650   1.00
O2       0.22650    0.77350    0.66180   1.00
O2       0.16180    0.77350    0.72650   1.00
O2       0.22650    0.83820    0.72650   1.00
O2       0.22650    0.66180    0.77350   1.00
O2       0.16180    0.72650    0.77350   1.00
O2       0.22650    0.72650    0.83820   1.00
O2       0.33820    0.77350    0.77350   1.00
O2       0.27350    0.83820    0.77350   1.00
O2       0.27350    0.77350    0.83820   1.00
C1       0.25000    0.75000    0.64480   1.00
C1       0.25000    0.64480    0.75000   1.00
C1       0.35520    0.75000    0.75000   1.00
C1       0.14480    0.75000    0.75000   1.00
C1       0.25000    0.85520    0.75000   1.00
C1       0.25000    0.75000    0.85520   1.00
O1       0.91500    0.91500    0.91500   1.00
Zn1      0.88220    0.94780    0.94780   1.00
Zn1      0.94780    0.88220    0.94780   1.00
Zn1      0.94780    0.94780    0.88220   1.00
Zn1      0.88220    0.88220    0.88220   1.00
O2       0.89150    0.93850    1.00320   1.00
O2       0.89150    1.00320    0.93850   1.00
O2       0.82680    0.93850    0.93850   1.00
O2       0.93850    0.89150    1.00320   1.00
O2       1.00320    0.89150    0.93850   1.00
O2       0.93850    0.82680    0.93850   1.00
O2       0.93850    1.00320    0.89150   1.00
O2       1.00320    0.93850    0.89150   1.00
O2       0.93850    0.93850    0.82680   1.00
O2       0.82680    0.89150    0.89150   1.00
O2       0.89150    0.82680    0.89150   1.00
O2       0.89150    0.89150    0.82680   1.00
C1       0.91500    0.91500    1.02020   1.00
C1       0.91500    1.02020    0.91500   1.00
C1       0.80980    0.91500    0.91500   1.00
C1       1.02020    0.91500    0.91500   1.00
C1       0.91500    0.80980    0.91500   1.00
C1       0.91500    0.91500    0.80980   1.00
O1       0.41500    0.41500    0.91500   1.00
Zn1      0.38220    0.44780    0.94780   1.00
Zn1      0.44780    0.38220    0.94780   1.00
Zn1      0.44780    0.44780    0.88220   1.00
Zn1      0.38220    0.38220    0.88220   1.00
O2       0.39150    0.43850    1.00320   1.00
O2       0.39150    0.50320    0.93850   1.00
O2       0.32680    0.43850    0.93850   1.00
O2       0.43850    0.39150    1.00320   1.00
O2       0.50320    0.39150    0.93850   1.00
O2       0.43850    0.32680    0.93850   1.00
O2       0.43850    0.50320    0.89150   1.00
O2       0.50320    0.43850    0.89150   1.00
O2       0.43850    0.43850    0.82680   1.00
O2       0.32680    0.39150    0.89150   1.00
O2       0.39150    0.32680    0.89150   1.00
O2       0.39150    0.39150    0.82680   1.00
C1       0.41500    0.41500    1.02020   1.00
C1       0.41500    0.52020    0.91500   1.00
C1       0.30980    0.41500    0.91500   1.00
C1       0.52020    0.41500    0.91500   1.00
C1       0.41500    0.30980    0.91500   1.00
C1       0.41500    0.41500    0.80980   1.00
O1       0.41500    0.91500    0.41500   1.00
Zn1      0.38220    0.94780    0.44780   1.00
Zn1      0.44780    0.88220    0.44780   1.00
Zn1      0.44780    0.94780    0.38220   1.00
Zn1      0.38220    0.88220    0.38220   1.00
O2       0.39150    0.93850    0.50320   1.00
O2       0.39150    1.00320    0.43850   1.00
O2       0.32680    0.93850    0.43850   1.00
O2       0.43850    0.89150    0.50320   1.00
O2       0.50320    0.89150    0.43850   1.00
O2       0.43850    0.82680    0.43850   1.00
O2       0.43850    1.00320    0.39150   1.00
O2       0.50320    0.93850    0.39150   1.00
O2       0.43850    0.93850    0.32680   1.00
O2       0.32680    0.89150    0.39150   1.00
O2       0.39150    0.82680    0.39150   1.00
O2       0.39150    0.89150    0.32680   1.00
C1       0.41500    0.91500    0.52020   1.00
C1       0.41500    1.02020    0.41500   1.00
C1       0.30980    0.91500    0.41500   1.00
C1       0.52020    0.91500    0.41500   1.00
C1       0.41500    0.80980    0.41500   1.00
C1       0.41500    0.91500    0.30980   1.00
O1       0.91500    0.41500    0.41500   1.00
Zn1      0.88220    0.44780    0.44780   1.00
Zn1      0.94780    0.38220    0.44780   1.00
Zn1      0.94780    0.44780    0.38220   1.00
Zn1      0.88220    0.38220    0.38220   1.00
O2       0.89150    0.43850    0.50320   1.00
O2       0.89150    0.50320    0.43850   1.00
O2       0.82680    0.43850    0.43850   1.00
O2       0.93850    0.39150    0.50320   1.00
O2       1.00320    0.39150    0.43850   1.00
O2       0.93850    0.32680    0.43850   1.00
O2       0.93850    0.50320    0.39150   1.00
O2       1.00320    0.43850    0.39150   1.00
O2       0.93850    0.43850    0.32680   1.00
O2       0.82680    0.39150    0.39150   1.00
O2       0.89150    0.32680    0.39150   1.00
O2       0.89150    0.39150    0.32680   1.00
C1       0.91500    0.41500    0.52020   1.00
C1       0.91500    0.52020    0.41500   1.00
C1       0.80980    0.41500    0.41500   1.00
C1       1.02020    0.41500    0.41500   1.00
C1       0.91500    0.30980    0.41500   1.00
C1       0.91500    0.41500    0.30980   1.00
O1       0.41500    0.41500    0.41500   1.00
Zn1      0.44780    0.38220    0.38220   1.00
Zn1      0.38220    0.44780    0.38220   1.00
Zn1      0.38220    0.38220    0.44780   1.00
Zn1      0.44780    0.44780    0.44780   1.00
O2       0.43850    0.39150    0.32680   1.00
O2       0.43850    0.32680    0.39150   1.00
O2       0.50320    0.39150    0.39150   1.00
O2       0.39150    0.43850    0.32680   1.00
O2       0.32680    0.43850    0.39150   1.00
O2       0.39150    0.50320    0.39150   1.00
O2       0.39150    0.32680    0.43850   1.00
O2       0.32680    0.39150    0.43850   1.00
O2       0.39150    0.39150    0.50320   1.00
O2       0.50320    0.43850    0.43850   1.00
O2       0.43850    0.50320    0.43850   1.00
O2       0.43850    0.43850    0.50320   1.00
C1       0.41500    0.41500    0.30980   1.00
C1       0.41500    0.30980    0.41500   1.00
C1       0.52020    0.41500    0.41500   1.00
C1       0.30980    0.41500    0.41500   1.00
C1       0.41500    0.52020    0.41500   1.00
C1       0.41500    0.41500    0.52020   1.00
O1       0.91500    0.91500    0.41500   1.00
Zn1      0.94780    0.88220    0.38220   1.00
Zn1      0.88220    0.94780    0.38220   1.00
Zn1      0.88220    0.88220    0.44780   1.00
Zn1      0.94780    0.94780    0.44780   1.00
O2       0.93850    0.89150    0.32680   1.00
O2       0.93850    0.82680    0.39150   1.00
O2       1.00320    0.89150    0.39150   1.00
O2       0.89150    0.93850    0.32680   1.00
O2       0.82680    0.93850    0.39150   1.00
O2       0.89150    1.00320    0.39150   1.00
O2       0.89150    0.82680    0.43850   1.00
O2       0.82680    0.89150    0.43850   1.00
O2       0.89150    0.89150    0.50320   1.00
O2       1.00320    0.93850    0.43850   1.00
O2       0.93850    1.00320    0.43850   1.00
O2       0.93850    0.93850    0.50320   1.00
C1       0.91500    0.91500    0.30980   1.00
C1       0.91500    0.80980    0.41500   1.00
C1       1.02020    0.91500    0.41500   1.00
C1       0.80980    0.91500    0.41500   1.00
C1       0.91500    1.02020    0.41500   1.00
C1       0.91500    0.91500    0.52020   1.00
O1       0.91500    0.41500    0.91500   1.00
Zn1      0.94780    0.38220    0.88220   1.00
Zn1      0.88220    0.44780    0.88220   1.00
Zn1      0.88220    0.38220    0.94780   1.00
Zn1      0.94780    0.44780    0.94780   1.00
O2       0.93850    0.39150    0.82680   1.00
O2       0.93850    0.32680    0.89150   1.00
O2       1.00320    0.39150    0.89150   1.00
O2       0.89150    0.43850    0.82680   1.00
O2       0.82680    0.43850    0.89150   1.00
O2       0.89150    0.50320    0.89150   1.00
O2       0.89150    0.32680    0.93850   1.00
O2       0.82680    0.39150    0.93850   1.00
O2       0.89150    0.39150    1.00320   1.00
O2       1.00320    0.43850    0.93850   1.00
O2       0.93850    0.50320    0.93850   1.00
O2       0.93850    0.43850    1.00320   1.00
C1       0.91500    0.41500    0.80980   1.00
C1       0.91500    0.30980    0.91500   1.00
C1       1.02020    0.41500    0.91500   1.00
C1       0.80980    0.41500    0.91500   1.00
C1       0.91500    0.52020    0.91500   1.00
C1       0.91500    0.41500    1.02020   1.00
O1       0.41500    0.91500    0.91500   1.00
Zn1      0.44780    0.88220    0.88220   1.00
Zn1      0.38220    0.94780    0.88220   1.00
Zn1      0.38220    0.88220    0.94780   1.00
Zn1      0.44780    0.94780    0.94780   1.00
O2       0.43850    0.89150    0.82680   1.00
O2       0.43850    0.82680    0.89150   1.00
O2       0.50320    0.89150    0.89150   1.00
O2       0.39150    0.93850    0.82680   1.00
O2       0.32680    0.93850    0.89150   1.00
O2       0.39150    1.00320    0.89150   1.00
O2       0.39150    0.82680    0.93850   1.00
O2       0.32680    0.89150    0.93850   1.00
O2       0.39150    0.89150    1.00320   1.00
O2       0.50320    0.93850    0.93850   1.00
O2       0.43850    1.00320    0.93850   1.00
O2       0.43850    0.93850    1.00320   1.00
C1       0.41500    0.91500    0.80980   1.00
C1       0.41500    0.80980    0.91500   1.00
C1       0.52020    0.91500    0.91500   1.00
C1       0.30980    0.91500    0.91500   1.00
C1       0.41500    1.02020    0.91500   1.00
C1       0.41500    0.91500    1.02020   1.00
C4       0.74925    0.75020    1.02067   1.00
C4       0.75075    0.74980    0.97933   1.00
C3       0.75480    0.78511    1.04244   1.00
C3       0.76339    0.78281    0.95756   1.00
C4       0.74234    0.71500    1.04150   1.00
C4       0.73914    0.71586    0.95850   1.00
C2       0.75018    0.75060    1.10352   1.00
C2       0.75015    0.75061    0.89648   1.00
C3       0.75559    0.78504    1.08310   1.00
C3       0.76268    0.78314    0.91690   1.00
C3       0.74309    0.71604    1.08306   1.00
C3       0.73901    0.71713    0.91694   1.00
H1       0.75771    0.81329    1.02888   1.00
H1       0.77496    0.80867    0.97112   1.00
C5       0.73431    0.67989    1.02065   1.00
C5       0.72854    0.68143    0.97935   1.00
H1       0.76020    0.81204    1.09886   1.00
H1       0.77218    0.80883    0.90114   1.00
H1       0.73764    0.69046    1.10053   1.00
H1       0.73094    0.69225    0.89947   1.00
C6       0.73346    0.64088    1.04234   1.00
C6       0.70978    0.64723    0.95766   1.00
H2       0.74507    0.61718    1.02358   1.00
H2       0.75380    0.64052    1.06737   1.00
C6       0.69222    0.63152    1.05724   1.00
H2       0.68788    0.63250    0.97642   1.00
H2       0.69198    0.65708    0.93263   1.00
C6       0.74081    0.61850    0.94276   1.00
H2       0.67095    0.63070    1.03274   1.00
C6       0.69175    0.59229    1.07832   1.00
H2       0.68226    0.65480    1.07760   1.00
C6       0.72161    0.58429    0.92168   1.00
H2       0.76108    0.63369    0.92240   1.00
H2       0.75883    0.60716    0.96726   1.00
H2       0.70079    0.56850    1.05822   1.00
H2       0.71180    0.59281    1.10380   1.00
H2       0.66182    0.58589    1.08898   1.00
H2       0.70189    0.56821    0.94178   1.00
H2       0.70451    0.59476    0.89620   1.00
H2       0.74434    0.56378    0.91102   1.00
C4       0.75020    1.02067    0.74925   1.00
C4       0.74980    0.97933    0.75075   1.00
C3       0.78511    1.04244    0.75480   1.00
C3       0.78281    0.95756    0.76339   1.00
C4       0.71500    1.04150    0.74234   1.00
C4       0.71586    0.95850    0.73914   1.00
C2       0.75060    1.10352    0.75018   1.00
C2       0.75061    0.89648    0.75015   1.00
C3       0.78504    1.08310    0.75559   1.00
C3       0.78314    0.91690    0.76268   1.00
C3       0.71604    1.08306    0.74309   1.00
C3       0.71713    0.91694    0.73901   1.00
H1       0.81329    1.02888    0.75771   1.00
H1       0.80867    0.97112    0.77496   1.00
C5       0.67989    1.02065    0.73431   1.00
C5       0.68143    0.97935    0.72854   1.00
H1       0.81204    1.09886    0.76020   1.00
H1       0.80883    0.90114    0.77218   1.00
H1       0.69046    1.10053    0.73764   1.00
H1       0.69225    0.89947    0.73094   1.00
C6       0.64088    1.04234    0.73346   1.00
C6       0.64723    0.95766    0.70978   1.00
H2       0.61718    1.02358    0.74507   1.00
H2       0.64052    1.06737    0.75380   1.00
C6       0.63152    1.05724    0.69222   1.00
H2       0.63250    0.97642    0.68788   1.00
H2       0.65708    0.93263    0.69198   1.00
C6       0.61850    0.94276    0.74081   1.00
H2       0.63070    1.03274    0.67095   1.00
C6       0.59229    1.07832    0.69175   1.00
H2       0.65480    1.07760    0.68226   1.00
C6       0.58429    0.92168    0.72161   1.00
H2       0.63369    0.92240    0.76108   1.00
H2       0.60716    0.96726    0.75883   1.00
H2       0.56850    1.05822    0.70079   1.00
H2       0.59281    1.10380    0.71180   1.00
H2       0.58589    1.08898    0.66182   1.00
H2       0.56821    0.94178    0.70189   1.00
H2       0.59476    0.89620    0.70451   1.00
H2       0.56378    0.91102    0.74434   1.00
C4       0.47933    0.74925    0.74980   1.00
C4       0.52067    0.75075    0.75020   1.00
C3       0.45756    0.75480    0.71489   1.00
C3       0.54244    0.76339    0.71719   1.00
C4       0.45850    0.74234    0.78500   1.00
C4       0.54150    0.73914    0.78414   1.00
C2       0.39648    0.75018    0.74940   1.00
C2       0.60352    0.75015    0.74939   1.00
C3       0.41690    0.75559    0.71496   1.00
C3       0.58310    0.76268    0.71686   1.00
C3       0.41694    0.74309    0.78396   1.00
C3       0.58306    0.73901    0.78287   1.00
H1       0.47112    0.75771    0.68671   1.00
H1       0.52888    0.77496    0.69133   1.00
C5       0.47935    0.73431    0.82011   1.00
C5       0.52065    0.72854    0.81857   1.00
H1       0.40114    0.76020    0.68796   1.00
H1       0.59886    0.77218    0.69117   1.00
H1       0.39947    0.73764    0.80954   1.00
H1       0.60053    0.73094    0.80775   1.00
C6       0.45766    0.73346    0.85912   1.00
C6       0.54234    0.70978    0.85277   1.00
H2       0.47642    0.74507    0.88282   1.00
H2       0.43263    0.75380    0.85948   1.00
C6       0.44276    0.69222    0.86848   1.00
H2       0.52358    0.68788    0.86750   1.00
H2       0.56737    0.69198    0.84292   1.00
C6       0.55724    0.74081    0.88150   1.00
H2       0.46726    0.67095    0.86930   1.00
C6       0.42168    0.69175    0.90771   1.00
H2       0.42240    0.68226    0.84520   1.00
C6       0.57832    0.72161    0.91571   1.00
H2       0.57760    0.76108    0.86631   1.00
H2       0.53274    0.75883    0.89284   1.00
H2       0.44178    0.70079    0.93150   1.00
H2       0.39620    0.71180    0.90719   1.00
H2       0.41102    0.66182    0.91411   1.00
H2       0.55822    0.70189    0.93179   1.00
H2       0.60380    0.70451    0.90524   1.00
H2       0.58898    0.74434    0.93622   1.00
C4       1.02067    0.74925    0.75020   1.00
C4       0.97933    0.75075    0.74980   1.00
C3       1.04244    0.75480    0.78511   1.00
C3       0.95756    0.76339    0.78281   1.00
C4       1.04150    0.74234    0.71500   1.00
C4       0.95850    0.73914    0.71586   1.00
C2       1.10352    0.75018    0.75060   1.00
C2       0.89648    0.75015    0.75061   1.00
C3       1.08310    0.75559    0.78504   1.00
C3       0.91690    0.76268    0.78314   1.00
C3       1.08306    0.74309    0.71604   1.00
C3       0.91694    0.73901    0.71713   1.00
H1       1.02888    0.75771    0.81329   1.00
H1       0.97112    0.77496    0.80867   1.00
C5       1.02065    0.73431    0.67989   1.00
C5       0.97935    0.72854    0.68143   1.00
H1       1.09886    0.76020    0.81204   1.00
H1       0.90114    0.77218    0.80883   1.00
H1       1.10053    0.73764    0.69046   1.00
H1       0.89947    0.73094    0.69225   1.00
C6       1.04234    0.73346    0.64088   1.00
C6       0.95766    0.70978    0.64723   1.00
H2       1.02358    0.74507    0.61718   1.00
H2       1.06737    0.75380    0.64052   1.00
C6       1.05724    0.69222    0.63152   1.00
H2       0.97642    0.68788    0.63250   1.00
H2       0.93263    0.69198    0.65708   1.00
C6       0.94276    0.74081    0.61850   1.00
H2       1.03274    0.67095    0.63070   1.00
C6       1.07832    0.69175    0.59229   1.00
H2       1.07760    0.68226    0.65480   1.00
C6       0.92168    0.72161    0.58429   1.00
H2       0.92240    0.76108    0.63369   1.00
H2       0.96726    0.75883    0.60716   1.00
H2       1.05822    0.70079    0.56850   1.00
H2       1.10380    0.71180    0.59281   1.00
H2       1.08898    0.66182    0.58589   1.00
H2       0.94178    0.70189    0.56821   1.00
H2       0.89620    0.70451    0.59476   1.00
H2       0.91102    0.74434    0.56378   1.00
C4       0.74980    0.47933    0.74925   1.00
C4       0.75020    0.52067    0.75075   1.00
C3       0.71489    0.45756    0.75480   1.00
C3       0.71719    0.54244    0.76339   1.00
C4       0.78500    0.45850    0.74234   1.00
C4       0.78414    0.54150    0.73914   1.00
C2       0.74940    0.39648    0.75018   1.00
C2       0.74939    0.60352    0.75015   1.00
C3       0.71496    0.41690    0.75559   1.00
C3       0.71686    0.58310    0.76268   1.00
C3       0.78396    0.41694    0.74309   1.00
C3       0.78287    0.58306    0.73901   1.00
H1       0.68671    0.47112    0.75771   1.00
H1       0.69133    0.52888    0.77496   1.00
C5       0.82011    0.47935    0.73431   1.00
C5       0.81857    0.52065    0.72854   1.00
H1       0.68796    0.40114    0.76020   1.00
H1       0.69117    0.59886    0.77218   1.00
H1       0.80954    0.39947    0.73764   1.00
H1       0.80775    0.60053    0.73094   1.00
C6       0.85912    0.45766    0.73346   1.00
C6       0.85277    0.54234    0.70978   1.00
H2       0.88282    0.47642    0.74507   1.00
H2       0.85948    0.43263    0.75380   1.00
C6       0.86848    0.44276    0.69222   1.00
H2       0.86750    0.52358    0.68788   1.00
H2       0.84292    0.56737    0.69198   1.00
C6       0.88150    0.55724    0.74081   1.00
H2       0.86930    0.46726    0.67095   1.00
C6       0.90771    0.42168    0.69175   1.00
H2       0.84520    0.42240    0.68226   1.00
C6       0.91571    0.57832    0.72161   1.00
H2       0.86631    0.57760    0.76108   1.00
H2       0.89284    0.53274    0.75883   1.00
H2       0.93150    0.44178    0.70079   1.00
H2       0.90719    0.39620    0.71180   1.00
H2       0.91411    0.41102    0.66182   1.00
H2       0.93179    0.55822    0.70189   1.00
H2       0.90524    0.60380    0.70451   1.00
H2       0.93622    0.58898    0.74434   1.00
C4       0.74925    0.74980    0.47933   1.00
C4       0.75075    0.75020    0.52067   1.00
C3       0.75480    0.71489    0.45756   1.00
C3       0.76339    0.71719    0.54244   1.00
C4       0.74234    0.78500    0.45850   1.00
C4       0.73914    0.78414    0.54150   1.00
C2       0.75018    0.74940    0.39648   1.00
C2       0.75015    0.74939    0.60352   1.00
C3       0.75559    0.71496    0.41690   1.00
C3       0.76268    0.71686    0.58310   1.00
C3       0.74309    0.78396    0.41694   1.00
C3       0.73901    0.78287    0.58306   1.00
H1       0.75771    0.68671    0.47112   1.00
H1       0.77496    0.69133    0.52888   1.00
C5       0.73431    0.82011    0.47935   1.00
C5       0.72854    0.81857    0.52065   1.00
H1       0.76020    0.68796    0.40114   1.00
H1       0.77218    0.69117    0.59886   1.00
H1       0.73764    0.80954    0.39947   1.00
H1       0.73094    0.80775    0.60053   1.00
C6       0.73346    0.85912    0.45766   1.00
C6       0.70978    0.85277    0.54234   1.00
H2       0.74507    0.88282    0.47642   1.00
H2       0.75380    0.85948    0.43263   1.00
C6       0.69222    0.86848    0.44276   1.00
H2       0.68788    0.86750    0.52358   1.00
H2       0.69198    0.84292    0.56737   1.00
C6       0.74081    0.88150    0.55724   1.00
H2       0.67095    0.86930    0.46726   1.00
C6       0.69175    0.90771    0.42168   1.00
H2       0.68226    0.84520    0.42240   1.00
C6       0.72161    0.91571    0.57832   1.00
H2       0.76108    0.86631    0.57760   1.00
H2       0.75883    0.89284    0.53274   1.00
H2       0.70079    0.93150    0.44178   1.00
H2       0.71180    0.90719    0.39620   1.00
H2       0.66182    0.91411    0.41102   1.00
H2       0.70189    0.93179    0.55822   1.00
H2       0.70451    0.90524    0.60380   1.00
H2       0.74434    0.93622    0.58898   1.00
C4       0.24925    0.25020    1.02067   1.00
C4       0.25075    0.24980    0.97933   1.00
C3       0.25480    0.28511    1.04244   1.00
C3       0.26339    0.28281    0.95756   1.00
C4       0.24234    0.21500    1.04150   1.00
C4       0.23914    0.21586    0.95850   1.00
C2       0.25018    0.25060    1.10352   1.00
C2       0.25015    0.25061    0.89648   1.00
C3       0.25559    0.28504    1.08310   1.00
C3       0.26268    0.28314    0.91690   1.00
C3       0.24309    0.21604    1.08306   1.00
C3       0.23901    0.21713    0.91694   1.00
H1       0.25771    0.31329    1.02888   1.00
H1       0.27496    0.30867    0.97112   1.00
C5       0.23431    0.17989    1.02065   1.00
C5       0.22854    0.18143    0.97935   1.00
H1       0.26020    0.31204    1.09886   1.00
H1       0.27218    0.30883    0.90114   1.00
H1       0.23764    0.19046    1.10053   1.00
H1       0.23094    0.19225    0.89947   1.00
C6       0.23346    0.14088    1.04234   1.00
C6       0.20978    0.14723    0.95766   1.00
H2       0.24507    0.11718    1.02358   1.00
H2       0.25380    0.14052    1.06737   1.00
C6       0.19222    0.13152    1.05724   1.00
H2       0.18788    0.13250    0.97642   1.00
H2       0.19198    0.15708    0.93263   1.00
C6       0.24081    0.11850    0.94276   1.00
H2       0.17095    0.13070    1.03274   1.00
C6       0.19175    0.09229    1.07832   1.00
H2       0.18226    0.15480    1.07760   1.00
C6       0.22161    0.08429    0.92168   1.00
H2       0.26108    0.13369    0.92240   1.00
H2       0.25883    0.10716    0.96726   1.00
H2       0.20079    0.06850    1.05822   1.00
H2       0.21180    0.09281    1.10380   1.00
H2       0.16182    0.08589    1.08898   1.00
H2       0.20189    0.06821    0.94178   1.00
H2       0.20451    0.09476    0.89620   1.00
H2       0.24434    0.06378    0.91102   1.00
C4       0.25020    0.52067    0.74925   1.00
C4       0.24980    0.47933    0.75075   1.00
C3       0.28511    0.54244    0.75480   1.00
C3       0.28281    0.45756    0.76339   1.00
C4       0.21500    0.54150    0.74234   1.00
C4       0.21586    0.45850    0.73914   1.00
C2       0.25060    0.60352    0.75018   1.00
C2       0.25061    0.39648    0.75015   1.00
C3       0.28504    0.58310    0.75559   1.00
C3       0.28314    0.41690    0.76268   1.00
C3       0.21604    0.58306    0.74309   1.00
C3       0.21713    0.41694    0.73901   1.00
H1       0.31329    0.52888    0.75771   1.00
H1       0.30867    0.47112    0.77496   1.00
C5       0.17989    0.52065    0.73431   1.00
C5       0.18143    0.47935    0.72854   1.00
H1       0.31204    0.59886    0.76020   1.00
H1       0.30883    0.40114    0.77218   1.00
H1       0.19046    0.60053    0.73764   1.00
H1       0.19225    0.39947    0.73094   1.00
C6       0.14088    0.54234    0.73346   1.00
C6       0.14723    0.45766    0.70978   1.00
H2       0.11718    0.52358    0.74507   1.00
H2       0.14052    0.56737    0.75380   1.00
C6       0.13152    0.55724    0.69222   1.00
H2       0.13250    0.47642    0.68788   1.00
H2       0.15708    0.43263    0.69198   1.00
C6       0.11850    0.44276    0.74081   1.00
H2       0.13070    0.53274    0.67095   1.00
C6       0.09229    0.57832    0.69175   1.00
H2       0.15480    0.57760    0.68226   1.00
C6       0.08429    0.42168    0.72161   1.00
H2       0.13369    0.42240    0.76108   1.00
H2       0.10716    0.46726    0.75883   1.00
H2       0.06850    0.55822    0.70079   1.00
H2       0.09281    0.60380    0.71180   1.00
H2       0.08589    0.58898    0.66182   1.00
H2       0.06821    0.44178    0.70189   1.00
H2       0.09476    0.39620    0.70451   1.00
H2       0.06378    0.41102    0.74434   1.00
C4       -0.02067   0.24925    0.74980   1.00
C4       0.02067    0.25075    0.75020   1.00
C3       -0.04244   0.25480    0.71489   1.00
C3       0.04244    0.26339    0.71719   1.00
C4       -0.04150   0.24234    0.78500   1.00
C4       0.04150    0.23914    0.78414   1.00
C2       -0.10352   0.25018    0.74940   1.00
C2       0.10352    0.25015    0.74939   1.00
C3       -0.08310   0.25559    0.71496   1.00
C3       0.08310    0.26268    0.71686   1.00
C3       -0.08306   0.24309    0.78396   1.00
C3       0.08306    0.23901    0.78287   1.00
H1       -0.02888   0.25771    0.68671   1.00
H1       0.02888    0.27496    0.69133   1.00
C5       -0.02065   0.23431    0.82011   1.00
C5       0.02065    0.22854    0.81857   1.00
H1       -0.09886   0.26020    0.68796   1.00
H1       0.09886    0.27218    0.69117   1.00
H1       -0.10053   0.23764    0.80954   1.00
H1       0.10053    0.23094    0.80775   1.00
C6       -0.04234   0.23346    0.85912   1.00
C6       0.04234    0.20978    0.85277   1.00
H2       -0.02358   0.24507    0.88282   1.00
H2       -0.06737   0.25380    0.85948   1.00
C6       -0.05724   0.19222    0.86848   1.00
H2       0.02358    0.18788    0.86750   1.00
H2       0.06737    0.19198    0.84292   1.00
C6       0.05724    0.24081    0.88150   1.00
H2       -0.03274   0.17095    0.86930   1.00
C6       -0.07832   0.19175    0.90771   1.00
H2       -0.07760   0.18226    0.84520   1.00
C6       0.07832    0.22161    0.91571   1.00
H2       0.07760    0.26108    0.86631   1.00
H2       0.03274    0.25883    0.89284   1.00
H2       -0.05822   0.20079    0.93150   1.00
H2       -0.10380   0.21180    0.90719   1.00
H2       -0.08898   0.16182    0.91411   1.00
H2       0.05822    0.20189    0.93179   1.00
H2       0.10380    0.20451    0.90524   1.00
H2       0.08898    0.24434    0.93622   1.00
C4       0.52067    0.24925    0.75020   1.00
C4       0.47933    0.25075    0.74980   1.00
C3       0.54244    0.25480    0.78511   1.00
C3       0.45756    0.26339    0.78281   1.00
C4       0.54150    0.24234    0.71500   1.00
C4       0.45850    0.23914    0.71586   1.00
C2       0.60352    0.25018    0.75060   1.00
C2       0.39648    0.25015    0.75061   1.00
C3       0.58310    0.25559    0.78504   1.00
C3       0.41690    0.26268    0.78314   1.00
C3       0.58306    0.24309    0.71604   1.00
C3       0.41694    0.23901    0.71713   1.00
H1       0.52888    0.25771    0.81329   1.00
H1       0.47112    0.27496    0.80867   1.00
C5       0.52065    0.23431    0.67989   1.00
C5       0.47935    0.22854    0.68143   1.00
H1       0.59886    0.26020    0.81204   1.00
H1       0.40114    0.27218    0.80883   1.00
H1       0.60053    0.23764    0.69046   1.00
H1       0.39947    0.23094    0.69225   1.00
C6       0.54234    0.23346    0.64088   1.00
C6       0.45766    0.20978    0.64723   1.00
H2       0.52358    0.24507    0.61718   1.00
H2       0.56737    0.25380    0.64052   1.00
C6       0.55724    0.19222    0.63152   1.00
H2       0.47642    0.18788    0.63250   1.00
H2       0.43263    0.19198    0.65708   1.00
C6       0.44276    0.24081    0.61850   1.00
H2       0.53274    0.17095    0.63070   1.00
C6       0.57832    0.19175    0.59229   1.00
H2       0.57760    0.18226    0.65480   1.00
C6       0.42168    0.22161    0.58429   1.00
H2       0.42240    0.26108    0.63369   1.00
H2       0.46726    0.25883    0.60716   1.00
H2       0.55822    0.20079    0.56850   1.00
H2       0.60380    0.21180    0.59281   1.00
H2       0.58898    0.16182    0.58589   1.00
H2       0.44178    0.20189    0.56821   1.00
H2       0.39620    0.20451    0.59476   1.00
H2       0.41102    0.24434    0.56378   1.00
C4       0.24980    -0.02067   0.74925   1.00
C4       0.25020    0.02067    0.75075   1.00
C3       0.21489    -0.04244   0.75480   1.00
C3       0.21719    0.04244    0.76339   1.00
C4       0.28500    -0.04150   0.74234   1.00
C4       0.28414    0.04150    0.73914   1.00
C2       0.24940    -0.10352   0.75018   1.00
C2       0.24939    0.10352    0.75015   1.00
C3       0.21496    -0.08310   0.75559   1.00
C3       0.21686    0.08310    0.76268   1.00
C3       0.28396    -0.08306   0.74309   1.00
C3       0.28287    0.08306    0.73901   1.00
H1       0.18671    -0.02888   0.75771   1.00
H1       0.19133    0.02888    0.77496   1.00
C5       0.32011    -0.02065   0.73431   1.00
C5       0.31857    0.02065    0.72854   1.00
H1       0.18796    -0.09886   0.76020   1.00
H1       0.19117    0.09886    0.77218   1.00
H1       0.30954    -0.10053   0.73764   1.00
H1       0.30775    0.10053    0.73094   1.00
C6       0.35912    -0.04234   0.73346   1.00
C6       0.35277    0.04234    0.70978   1.00
H2       0.38282    -0.02358   0.74507   1.00
H2       0.35948    -0.06737   0.75380   1.00
C6       0.36848    -0.05724   0.69222   1.00
H2       0.36750    0.02358    0.68788   1.00
H2       0.34292    0.06737    0.69198   1.00
C6       0.38150    0.05724    0.74081   1.00
H2       0.36930    -0.03274   0.67095   1.00
C6       0.40771    -0.07832   0.69175   1.00
H2       0.34520    -0.07760   0.68226   1.00
C6       0.41571    0.07832    0.72161   1.00
H2       0.36631    0.07760    0.76108   1.00
H2       0.39284    0.03274    0.75883   1.00
H2       0.43150    -0.05822   0.70079   1.00
H2       0.40719    -0.10380   0.71180   1.00
H2       0.41411    -0.08898   0.66182   1.00
H2       0.43179    0.05822    0.70189   1.00
H2       0.40524    0.10380    0.70451   1.00
H2       0.43622    0.08898    0.74434   1.00
C4       0.24925    0.24980    0.47933   1.00
C4       0.25075    0.25020    0.52067   1.00
C3       0.25480    0.21489    0.45756   1.00
C3       0.26339    0.21719    0.54244   1.00
C4       0.24234    0.28500    0.45850   1.00
C4       0.23914    0.28414    0.54150   1.00
C2       0.25018    0.24940    0.39648   1.00
C2       0.25015    0.24939    0.60352   1.00
C3       0.25559    0.21496    0.41690   1.00
C3       0.26268    0.21686    0.58310   1.00
C3       0.24309    0.28396    0.41694   1.00
C3       0.23901    0.28287    0.58306   1.00
H1       0.25771    0.18671    0.47112   1.00
H1       0.27496    0.19133    0.52888   1.00
C5       0.23431    0.32011    0.47935   1.00
C5       0.22854    0.31857    0.52065   1.00
H1       0.26020    0.18796    0.40114   1.00
H1       0.27218    0.19117    0.59886   1.00
H1       0.23764    0.30954    0.39947   1.00
H1       0.23094    0.30775    0.60053   1.00
C6       0.23346    0.35912    0.45766   1.00
C6       0.20978    0.35277    0.54234   1.00
H2       0.24507    0.38282    0.47642   1.00
H2       0.25380    0.35948    0.43263   1.00
C6       0.19222    0.36848    0.44276   1.00
H2       0.18788    0.36750    0.52358   1.00
H2       0.19198    0.34292    0.56737   1.00
C6       0.24081    0.38150    0.55724   1.00
H2       0.17095    0.36930    0.46726   1.00
C6       0.19175    0.40771    0.42168   1.00
H2       0.18226    0.34520    0.42240   1.00
C6       0.22161    0.41571    0.57832   1.00
H2       0.26108    0.36631    0.57760   1.00
H2       0.25883    0.39284    0.53274   1.00
H2       0.20079    0.43150    0.44178   1.00
H2       0.21180    0.40719    0.39620   1.00
H2       0.16182    0.41411    0.41102   1.00
H2       0.20189    0.43179    0.55822   1.00
H2       0.20451    0.40524    0.60380   1.00
H2       0.24434    0.43622    0.58898   1.00
C4       0.24925    0.75020    0.52067   1.00
C4       0.25075    0.74980    0.47933   1.00
C3       0.25480    0.78511    0.54244   1.00
C3       0.26339    0.78281    0.45756   1.00
C4       0.24234    0.71500    0.54150   1.00
C4       0.23914    0.71586    0.45850   1.00
C2       0.25018    0.75060    0.60352   1.00
C2       0.25015    0.75061    0.39648   1.00
C3       0.25559    0.78504    0.58310   1.00
C3       0.26268    0.78314    0.41690   1.00
C3       0.24309    0.71604    0.58306   1.00
C3       0.23901    0.71713    0.41694   1.00
H1       0.25771    0.81329    0.52888   1.00
H1       0.27496    0.80867    0.47112   1.00
C5       0.23431    0.67989    0.52065   1.00
C5       0.22854    0.68143    0.47935   1.00
H1       0.26020    0.81204    0.59886   1.00
H1       0.27218    0.80883    0.40114   1.00
H1       0.23764    0.69046    0.60053   1.00
H1       0.23094    0.69225    0.39947   1.00
C6       0.23346    0.64088    0.54234   1.00
C6       0.20978    0.64723    0.45766   1.00
H2       0.24507    0.61718    0.52358   1.00
H2       0.25380    0.64052    0.56737   1.00
C6       0.19222    0.63152    0.55724   1.00
H2       0.18788    0.63250    0.47642   1.00
H2       0.19198    0.65708    0.43263   1.00
C6       0.24081    0.61850    0.44276   1.00
H2       0.17095    0.63070    0.53274   1.00
C6       0.19175    0.59229    0.57832   1.00
H2       0.18226    0.65480    0.57760   1.00
C6       0.22161    0.58429    0.42168   1.00
H2       0.26108    0.63369    0.42240   1.00
H2       0.25883    0.60716    0.46726   1.00
H2       0.20079    0.56850    0.55822   1.00
H2       0.21180    0.59281    0.60380   1.00
H2       0.16182    0.58589    0.58898   1.00
H2       0.20189    0.56821    0.44178   1.00
H2       0.20451    0.59476    0.39620   1.00
H2       0.24434    0.56378    0.41102   1.00
C4       0.25020    1.02067    0.24925   1.00
C4       0.24980    0.97933    0.25075   1.00
C3       0.28511    1.04244    0.25480   1.00
C3       0.28281    0.95756    0.26339   1.00
C4       0.21500    1.04150    0.24234   1.00
C4       0.21586    0.95850    0.23914   1.00
C2       0.25060    1.10352    0.25018   1.00
C2       0.25061    0.89648    0.25015   1.00
C3       0.28504    1.08310    0.25559   1.00
C3       0.28314    0.91690    0.26268   1.00
C3       0.21604    1.08306    0.24309   1.00
C3       0.21713    0.91694    0.23901   1.00
H1       0.31329    1.02888    0.25771   1.00
H1       0.30867    0.97112    0.27496   1.00
C5       0.17989    1.02065    0.23431   1.00
C5       0.18143    0.97935    0.22854   1.00
H1       0.31204    1.09886    0.26020   1.00
H1       0.30883    0.90114    0.27218   1.00
H1       0.19046    1.10053    0.23764   1.00
H1       0.19225    0.89947    0.23094   1.00
C6       0.14088    1.04234    0.23346   1.00
C6       0.14723    0.95766    0.20978   1.00
H2       0.11718    1.02358    0.24507   1.00
H2       0.14052    1.06737    0.25380   1.00
C6       0.13152    1.05724    0.19222   1.00
H2       0.13250    0.97642    0.18788   1.00
H2       0.15708    0.93263    0.19198   1.00
C6       0.11850    0.94276    0.24081   1.00
H2       0.13070    1.03274    0.17095   1.00
C6       0.09229    1.07832    0.19175   1.00
H2       0.15480    1.07760    0.18226   1.00
C6       0.08429    0.92168    0.22161   1.00
H2       0.13369    0.92240    0.26108   1.00
H2       0.10716    0.96726    0.25883   1.00
H2       0.06850    1.05822    0.20079   1.00
H2       0.09281    1.10380    0.21180   1.00
H2       0.08589    1.08898    0.16182   1.00
H2       0.06821    0.94178    0.20189   1.00
H2       0.09476    0.89620    0.20451   1.00
H2       0.06378    0.91102    0.24434   1.00
C4       -0.02067   0.74925    0.24980   1.00
C4       0.02067    0.75075    0.25020   1.00
C3       -0.04244   0.75480    0.21489   1.00
C3       0.04244    0.76339    0.21719   1.00
C4       -0.04150   0.74234    0.28500   1.00
C4       0.04150    0.73914    0.28414   1.00
C2       -0.10352   0.75018    0.24940   1.00
C2       0.10352    0.75015    0.24939   1.00
C3       -0.08310   0.75559    0.21496   1.00
C3       0.08310    0.76268    0.21686   1.00
C3       -0.08306   0.74309    0.28396   1.00
C3       0.08306    0.73901    0.28287   1.00
H1       -0.02888   0.75771    0.18671   1.00
H1       0.02888    0.77496    0.19133   1.00
C5       -0.02065   0.73431    0.32011   1.00
C5       0.02065    0.72854    0.31857   1.00
H1       -0.09886   0.76020    0.18796   1.00
H1       0.09886    0.77218    0.19117   1.00
H1       -0.10053   0.73764    0.30954   1.00
H1       0.10053    0.73094    0.30775   1.00
C6       -0.04234   0.73346    0.35912   1.00
C6       0.04234    0.70978    0.35277   1.00
H2       -0.02358   0.74507    0.38282   1.00
H2       -0.06737   0.75380    0.35948   1.00
C6       -0.05724   0.69222    0.36848   1.00
H2       0.02358    0.68788    0.36750   1.00
H2       0.06737    0.69198    0.34292   1.00
C6       0.05724    0.74081    0.38150   1.00
H2       -0.03274   0.67095    0.36930   1.00
C6       -0.07832   0.69175    0.40771   1.00
H2       -0.07760   0.68226    0.34520   1.00
C6       0.07832    0.72161    0.41571   1.00
H2       0.07760    0.76108    0.36631   1.00
H2       0.03274    0.75883    0.39284   1.00
H2       -0.05822   0.70079    0.43150   1.00
H2       -0.10380   0.71180    0.40719   1.00
H2       -0.08898   0.66182    0.41411   1.00
H2       0.05822    0.70189    0.43179   1.00
H2       0.10380    0.70451    0.40524   1.00
H2       0.08898    0.74434    0.43622   1.00
C4       0.52067    0.74925    0.25020   1.00
C4       0.47933    0.75075    0.24980   1.00
C3       0.54244    0.75480    0.28511   1.00
C3       0.45756    0.76339    0.28281   1.00
C4       0.54150    0.74234    0.21500   1.00
C4       0.45850    0.73914    0.21586   1.00
C2       0.60352    0.75018    0.25060   1.00
C2       0.39648    0.75015    0.25061   1.00
C3       0.58310    0.75559    0.28504   1.00
C3       0.41690    0.76268    0.28314   1.00
C3       0.58306    0.74309    0.21604   1.00
C3       0.41694    0.73901    0.21713   1.00
H1       0.52888    0.75771    0.31329   1.00
H1       0.47112    0.77496    0.30867   1.00
C5       0.52065    0.73431    0.17989   1.00
C5       0.47935    0.72854    0.18143   1.00
H1       0.59886    0.76020    0.31204   1.00
H1       0.40114    0.77218    0.30883   1.00
H1       0.60053    0.73764    0.19046   1.00
H1       0.39947    0.73094    0.19225   1.00
C6       0.54234    0.73346    0.14088   1.00
C6       0.45766    0.70978    0.14723   1.00
H2       0.52358    0.74507    0.11718   1.00
H2       0.56737    0.75380    0.14052   1.00
C6       0.55724    0.69222    0.13152   1.00
H2       0.47642    0.68788    0.13250   1.00
H2       0.43263    0.69198    0.15708   1.00
C6       0.44276    0.74081    0.11850   1.00
H2       0.53274    0.67095    0.13070   1.00
C6       0.57832    0.69175    0.09229   1.00
H2       0.57760    0.68226    0.15480   1.00
C6       0.42168    0.72161    0.08429   1.00
H2       0.42240    0.76108    0.13369   1.00
H2       0.46726    0.75883    0.10716   1.00
H2       0.55822    0.70079    0.06850   1.00
H2       0.60380    0.71180    0.09281   1.00
H2       0.58898    0.66182    0.08589   1.00
H2       0.44178    0.70189    0.06821   1.00
H2       0.39620    0.70451    0.09476   1.00
H2       0.41102    0.74434    0.06378   1.00
C4       0.24980    0.47933    0.24925   1.00
C4       0.25020    0.52067    0.25075   1.00
C3       0.21489    0.45756    0.25480   1.00
C3       0.21719    0.54244    0.26339   1.00
C4       0.28500    0.45850    0.24234   1.00
C4       0.28414    0.54150    0.23914   1.00
C2       0.24940    0.39648    0.25018   1.00
C2       0.24939    0.60352    0.25015   1.00
C3       0.21496    0.41690    0.25559   1.00
C3       0.21686    0.58310    0.26268   1.00
C3       0.28396    0.41694    0.24309   1.00
C3       0.28287    0.58306    0.23901   1.00
H1       0.18671    0.47112    0.25771   1.00
H1       0.19133    0.52888    0.27496   1.00
C5       0.32011    0.47935    0.23431   1.00
C5       0.31857    0.52065    0.22854   1.00
H1       0.18796    0.40114    0.26020   1.00
H1       0.19117    0.59886    0.27218   1.00
H1       0.30954    0.39947    0.23764   1.00
H1       0.30775    0.60053    0.23094   1.00
C6       0.35912    0.45766    0.23346   1.00
C6       0.35277    0.54234    0.20978   1.00
H2       0.38282    0.47642    0.24507   1.00
H2       0.35948    0.43263    0.25380   1.00
C6       0.36848    0.44276    0.19222   1.00
H2       0.36750    0.52358    0.18788   1.00
H2       0.34292    0.56737    0.19198   1.00
C6       0.38150    0.55724    0.24081   1.00
H2       0.36930    0.46726    0.17095   1.00
C6       0.40771    0.42168    0.19175   1.00
H2       0.34520    0.42240    0.18226   1.00
C6       0.41571    0.57832    0.22161   1.00
H2       0.36631    0.57760    0.26108   1.00
H2       0.39284    0.53274    0.25883   1.00
H2       0.43150    0.44178    0.20079   1.00
H2       0.40719    0.39620    0.21180   1.00
H2       0.41411    0.41102    0.16182   1.00
H2       0.43179    0.55822    0.20189   1.00
H2       0.40524    0.60380    0.20451   1.00
H2       0.43622    0.58898    0.24434   1.00
C4       0.24925    0.74980    -0.02067   1.00
C4       0.25075    0.75020    0.02067   1.00
C3       0.25480    0.71489    -0.04244   1.00
C3       0.26339    0.71719    0.04244   1.00
C4       0.24234    0.78500    -0.04150   1.00
C4       0.23914    0.78414    0.04150   1.00
C2       0.25018    0.74940    -0.10352   1.00
C2       0.25015    0.74939    0.10352   1.00
C3       0.25559    0.71496    -0.08310   1.00
C3       0.26268    0.71686    0.08310   1.00
C3       0.24309    0.78396    -0.08306   1.00
C3       0.23901    0.78287    0.08306   1.00
H1       0.25771    0.68671    -0.02888   1.00
H1       0.27496    0.69133    0.02888   1.00
C5       0.23431    0.82011    -0.02065   1.00
C5       0.22854    0.81857    0.02065   1.00
H1       0.26020    0.68796    -0.09886   1.00
H1       0.27218    0.69117    0.09886   1.00
H1       0.23764    0.80954    -0.10053   1.00
H1       0.23094    0.80775    0.10053   1.00
C6       0.23346    0.85912    -0.04234   1.00
C6       0.20978    0.85277    0.04234   1.00
H2       0.24507    0.88282    -0.02358   1.00
H2       0.25380    0.85948    -0.06737   1.00
C6       0.19222    0.86848    -0.05724   1.00
H2       0.18788    0.86750    0.02358   1.00
H2       0.19198    0.84292    0.06737   1.00
C6       0.24081    0.88150    0.05724   1.00
H2       0.17095    0.86930    -0.03274   1.00
C6       0.19175    0.90771    -0.07832   1.00
H2       0.18226    0.84520    -0.07760   1.00
C6       0.22161    0.91571    0.07832   1.00
H2       0.26108    0.86631    0.07760   1.00
H2       0.25883    0.89284    0.03274   1.00
H2       0.20079    0.93150    -0.05822   1.00
H2       0.21180    0.90719    -0.10380   1.00
H2       0.16182    0.91411    -0.08898   1.00
H2       0.20189    0.93179    0.05822   1.00
H2       0.20451    0.90524    0.10380   1.00
H2       0.24434    0.93622    0.08898   1.00
C4       0.74925    0.25020    0.52067   1.00
C4       0.75075    0.24980    0.47933   1.00
C3       0.75480    0.28511    0.54244   1.00
C3       0.76339    0.28281    0.45756   1.00
C4       0.74234    0.21500    0.54150   1.00
C4       0.73914    0.21586    0.45850   1.00
C2       0.75018    0.25060    0.60352   1.00
C2       0.75015    0.25061    0.39648   1.00
C3       0.75559    0.28504    0.58310   1.00
C3       0.76268    0.28314    0.41690   1.00
C3       0.74309    0.21604    0.58306   1.00
C3       0.73901    0.21713    0.41694   1.00
H1       0.75771    0.31329    0.52888   1.00
H1       0.77496    0.30867    0.47112   1.00
C5       0.73431    0.17989    0.52065   1.00
C5       0.72854    0.18143    0.47935   1.00
H1       0.76020    0.31204    0.59886   1.00
H1       0.77218    0.30883    0.40114   1.00
H1       0.73764    0.19046    0.60053   1.00
H1       0.73094    0.19225    0.39947   1.00
C6       0.73346    0.14088    0.54234   1.00
C6       0.70978    0.14723    0.45766   1.00
H2       0.74507    0.11718    0.52358   1.00
H2       0.75380    0.14052    0.56737   1.00
C6       0.69222    0.13152    0.55724   1.00
H2       0.68788    0.13250    0.47642   1.00
H2       0.69198    0.15708    0.43263   1.00
C6       0.74081    0.11850    0.44276   1.00
H2       0.67095    0.13070    0.53274   1.00
C6       0.69175    0.09229    0.57832   1.00
H2       0.68226    0.15480    0.57760   1.00
C6       0.72161    0.08429    0.42168   1.00
H2       0.76108    0.13369    0.42240   1.00
H2       0.75883    0.10716    0.46726   1.00
H2       0.70079    0.06850    0.55822   1.00
H2       0.71180    0.09281    0.60380   1.00
H2       0.66182    0.08589    0.58898   1.00
H2       0.70189    0.06821    0.44178   1.00
H2       0.70451    0.09476    0.39620   1.00
H2       0.74434    0.06378    0.41102   1.00
C4       0.75020    0.52067    0.24925   1.00
C4       0.74980    0.47933    0.25075   1.00
C3       0.78511    0.54244    0.25480   1.00
C3       0.78281    0.45756    0.26339   1.00
C4       0.71500    0.54150    0.24234   1.00
C4       0.71586    0.45850    0.23914   1.00
C2       0.75060    0.60352    0.25018   1.00
C2       0.75061    0.39648    0.25015   1.00
C3       0.78504    0.58310    0.25559   1.00
C3       0.78314    0.41690    0.26268   1.00
C3       0.71604    0.58306    0.24309   1.00
C3       0.71713    0.41694    0.23901   1.00
H1       0.81329    0.52888    0.25771   1.00
H1       0.80867    0.47112    0.27496   1.00
C5       0.67989    0.52065    0.23431   1.00
C5       0.68143    0.47935    0.22854   1.00
H1       0.81204    0.59886    0.26020   1.00
H1       0.80883    0.40114    0.27218   1.00
H1       0.69046    0.60053    0.23764   1.00
H1       0.69225    0.39947    0.23094   1.00
C6       0.64088    0.54234    0.23346   1.00
C6       0.64723    0.45766    0.20978   1.00
H2       0.61718    0.52358    0.24507   1.00
H2       0.64052    0.56737    0.25380   1.00
C6       0.63152    0.55724    0.19222   1.00
H2       0.63250    0.47642    0.18788   1.00
H2       0.65708    0.43263    0.19198   1.00
C6       0.61850    0.44276    0.24081   1.00
H2       0.63070    0.53274    0.17095   1.00
C6       0.59229    0.57832    0.19175   1.00
H2       0.65480    0.57760    0.18226   1.00
C6       0.58429    0.42168    0.22161   1.00
H2       0.63369    0.42240    0.26108   1.00
H2       0.60716    0.46726    0.25883   1.00
H2       0.56850    0.55822    0.20079   1.00
H2       0.59281    0.60380    0.21180   1.00
H2       0.58589    0.58898    0.16182   1.00
H2       0.56821    0.44178    0.20189   1.00
H2       0.59476    0.39620    0.20451   1.00
H2       0.56378    0.41102    0.24434   1.00
C4       0.47933    0.24925    0.24980   1.00
C4       0.52067    0.25075    0.25020   1.00
C3       0.45756    0.25480    0.21489   1.00
C3       0.54244    0.26339    0.21719   1.00
C4       0.45850    0.24234    0.28500   1.00
C4       0.54150    0.23914    0.28414   1.00
C2       0.39648    0.25018    0.24940   1.00
C2       0.60352    0.25015    0.24939   1.00
C3       0.41690    0.25559    0.21496   1.00
C3       0.58310    0.26268    0.21686   1.00
C3       0.41694    0.24309    0.28396   1.00
C3       0.58306    0.23901    0.28287   1.00
H1       0.47112    0.25771    0.18671   1.00
H1       0.52888    0.27496    0.19133   1.00
C5       0.47935    0.23431    0.32011   1.00
C5       0.52065    0.22854    0.31857   1.00
H1       0.40114    0.26020    0.18796   1.00
H1       0.59886    0.27218    0.19117   1.00
H1       0.39947    0.23764    0.30954   1.00
H1       0.60053    0.23094    0.30775   1.00
C6       0.45766    0.23346    0.35912   1.00
C6       0.54234    0.20978    0.35277   1.00
H2       0.47642    0.24507    0.38282   1.00
H2       0.43263    0.25380    0.35948   1.00
C6       0.44276    0.19222    0.36848   1.00
H2       0.52358    0.18788    0.36750   1.00
H2       0.56737    0.19198    0.34292   1.00
C6       0.55724    0.24081    0.38150   1.00
H2       0.46726    0.17095    0.36930   1.00
C6       0.42168    0.19175    0.40771   1.00
H2       0.42240    0.18226    0.34520   1.00
C6       0.57832    0.22161    0.41571   1.00
H2       0.57760    0.26108    0.36631   1.00
H2       0.53274    0.25883    0.39284   1.00
H2       0.44178    0.20079    0.43150   1.00
H2       0.39620    0.21180    0.40719   1.00
H2       0.41102    0.16182    0.41411   1.00
H2       0.55822    0.20189    0.43179   1.00
H2       0.60380    0.20451    0.40524   1.00
H2       0.58898    0.24434    0.43622   1.00
C4       1.02067    0.24925    0.25020   1.00
C4       0.97933    0.25075    0.24980   1.00
C3       1.04244    0.25480    0.28511   1.00
C3       0.95756    0.26339    0.28281   1.00
C4       1.04150    0.24234    0.21500   1.00
C4       0.95850    0.23914    0.21586   1.00
C2       1.10352    0.25018    0.25060   1.00
C2       0.89648    0.25015    0.25061   1.00
C3       1.08310    0.25559    0.28504   1.00
C3       0.91690    0.26268    0.28314   1.00
C3       1.08306    0.24309    0.21604   1.00
C3       0.91694    0.23901    0.21713   1.00
H1       1.02888    0.25771    0.31329   1.00
H1       0.97112    0.27496    0.30867   1.00
C5       1.02065    0.23431    0.17989   1.00
C5       0.97935    0.22854    0.18143   1.00
H1       1.09886    0.26020    0.31204   1.00
H1       0.90114    0.27218    0.30883   1.00
H1       1.10053    0.23764    0.19046   1.00
H1       0.89947    0.23094    0.19225   1.00
C6       1.04234    0.23346    0.14088   1.00
C6       0.95766    0.20978    0.14723   1.00
H2       1.02358    0.24507    0.11718   1.00
H2       1.06737    0.25380    0.14052   1.00
C6       1.05724    0.19222    0.13152   1.00
H2       0.97642    0.18788    0.13250   1.00
H2       0.93263    0.19198    0.15708   1.00
C6       0.94276    0.24081    0.11850   1.00
H2       1.03274    0.17095    0.13070   1.00
C6       1.07832    0.19175    0.09229   1.00
H2       1.07760    0.18226    0.15480   1.00
C6       0.92168    0.22161    0.08429   1.00
H2       0.92240    0.26108    0.13369   1.00
H2       0.96726    0.25883    0.10716   1.00
H2       1.05822    0.20079    0.06850   1.00
H2       1.10380    0.21180    0.09281   1.00
H2       1.08898    0.16182    0.08589   1.00
H2       0.94178    0.20189    0.06821   1.00
H2       0.89620    0.20451    0.09476   1.00
H2       0.91102    0.24434    0.06378   1.00
C4       0.74980    -0.02067   0.24925   1.00
C4       0.75020    0.02067    0.25075   1.00
C3       0.71489    -0.04244   0.25480   1.00
C3       0.71719    0.04244    0.26339   1.00
C4       0.78500    -0.04150   0.24234   1.00
C4       0.78414    0.04150    0.23914   1.00
C2       0.74940    -0.10352   0.25018   1.00
C2       0.74939    0.10352    0.25015   1.00
C3       0.71496    -0.08310   0.25559   1.00
C3       0.71686    0.08310    0.26268   1.00
C3       0.78396    -0.08306   0.24309   1.00
C3       0.78287    0.08306    0.23901   1.00
H1       0.68671    -0.02888   0.25771   1.00
H1       0.69133    0.02888    0.27496   1.00
C5       0.82011    -0.02065   0.23431   1.00
C5       0.81857    0.02065    0.22854   1.00
H1       0.68796    -0.09886   0.26020   1.00
H1       0.69117    0.09886    0.27218   1.00
H1       0.80954    -0.10053   0.23764   1.00
H1       0.80775    0.10053    0.23094   1.00
C6       0.85912    -0.04234   0.23346   1.00
C6       0.85277    0.04234    0.20978   1.00
H2       0.88282    -0.02358   0.24507   1.00
H2       0.85948    -0.06737   0.25380   1.00
C6       0.86848    -0.05724   0.19222   1.00
H2       0.86750    0.02358    0.18788   1.00
H2       0.84292    0.06737    0.19198   1.00
C6       0.88150    0.05724    0.24081   1.00
H2       0.86930    -0.03274   0.17095   1.00
C6       0.90771    -0.07832   0.19175   1.00
H2       0.84520    -0.07760   0.18226   1.00
C6       0.91571    0.07832    0.22161   1.00
H2       0.86631    0.07760    0.26108   1.00
H2       0.89284    0.03274    0.25883   1.00
H2       0.93150    -0.05822   0.20079   1.00
H2       0.90719    -0.10380   0.21180   1.00
H2       0.91411    -0.08898   0.16182   1.00
H2       0.93179    0.05822    0.20189   1.00
H2       0.90524    0.10380    0.20451   1.00
H2       0.93622    0.08898    0.24434   1.00
C4       0.74925    0.24980    -0.02067   1.00
C4       0.75075    0.25020    0.02067   1.00
C3       0.75480    0.21489    -0.04244   1.00
C3       0.76339    0.21719    0.04244   1.00
C4       0.74234    0.28500    -0.04150   1.00
C4       0.73914    0.28414    0.04150   1.00
C2       0.75018    0.24940    -0.10352   1.00
C2       0.75015    0.24939    0.10352   1.00
C3       0.75559    0.21496    -0.08310   1.00
C3       0.76268    0.21686    0.08310   1.00
C3       0.74309    0.28396    -0.08306   1.00
C3       0.73901    0.28287    0.08306   1.00
H1       0.75771    0.18671    -0.02888   1.00
H1       0.77496    0.19133    0.02888   1.00
C5       0.73431    0.32011    -0.02065   1.00
C5       0.72854    0.31857    0.02065   1.00
H1       0.76020    0.18796    -0.09886   1.00
H1       0.77218    0.19117    0.09886   1.00
H1       0.73764    0.30954    -0.10053   1.00
H1       0.73094    0.30775    0.10053   1.00
C6       0.73346    0.35912    -0.04234   1.00
C6       0.70978    0.35277    0.04234   1.00
H2       0.74507    0.38282    -0.02358   1.00
H2       0.75380    0.35948    -0.06737   1.00
C6       0.69222    0.36848    -0.05724   1.00
H2       0.68788    0.36750    0.02358   1.00
H2       0.69198    0.34292    0.06737   1.00
C6       0.74081    0.38150    0.05724   1.00
H2       0.67095    0.36930    -0.03274   1.00
C6       0.69175    0.40771    -0.07832   1.00
H2       0.68226    0.34520    -0.07760   1.00
C6       0.72161    0.41571    0.07832   1.00
H2       0.76108    0.36631    0.07760   1.00
H2       0.75883    0.39284    0.03274   1.00
H2       0.70079    0.43150    -0.05822   1.00
H2       0.71180    0.40719    -0.10380   1.00
H2       0.66182    0.41411    -0.08898   1.00
H2       0.70189    0.43179    0.05822   1.00
H2       0.70451    0.40524    0.10380   1.00
H2       0.74434    0.43622    0.08898   1.00
C4       0.91425    0.91520    1.18567   1.00
C4       0.91575    0.91480    1.14433   1.00
C3       0.91980    0.95011    1.20744   1.00
C3       0.92839    0.94781    1.12256   1.00
C4       0.90734    0.88000    1.20650   1.00
C4       0.90414    0.88086    1.12350   1.00
C2       0.91518    0.91560    1.26852   1.00
C2       0.91515    0.91561    1.06148   1.00
C3       0.92059    0.95004    1.24810   1.00
C3       0.92768    0.94814    1.08190   1.00
C3       0.90809    0.88104    1.24806   1.00
C3       0.90401    0.88213    1.08194   1.00
H1       0.92271    0.97829    1.19388   1.00
H1       0.93996    0.97367    1.13612   1.00
C5       0.89931    0.84489    1.18565   1.00
C5       0.89354    0.84643    1.14435   1.00
H1       0.92520    0.97704    1.26386   1.00
H1       0.93718    0.97383    1.06614   1.00
H1       0.90264    0.85546    1.26553   1.00
H1       0.89594    0.85725    1.06447   1.00
C6       0.89846    0.80588    1.20734   1.00
C6       0.87478    0.81223    1.12266   1.00
H2       0.91007    0.78218    1.18858   1.00
H2       0.91880    0.80552    1.23237   1.00
C6       0.85722    0.79652    1.22224   1.00
H2       0.85288    0.79750    1.14142   1.00
H2       0.85698    0.82208    1.09763   1.00
C6       0.90581    0.78350    1.10776   1.00
H2       0.83595    0.79570    1.19774   1.00
C6       0.85675    0.75729    1.24332   1.00
H2       0.84726    0.81980    1.24260   1.00
C6       0.88661    0.74929    1.08668   1.00
H2       0.92608    0.79869    1.08740   1.00
H2       0.92383    0.77216    1.13226   1.00
H2       0.86579    0.73350    1.22322   1.00
H2       0.87680    0.75781    1.26880   1.00
H2       0.82682    0.75089    1.25398   1.00
H2       0.86689    0.73321    1.10678   1.00
H2       0.86951    0.75976    1.06120   1.00
H2       0.90934    0.72878    1.07602   1.00
C4       0.91520    1.18567    0.91425   1.00
C4       0.91480    1.14433    0.91575   1.00
C3       0.95011    1.20744    0.91980   1.00
C3       0.94781    1.12256    0.92839   1.00
C4       0.88000    1.20650    0.90734   1.00
C4       0.88086    1.12350    0.90414   1.00
C2       0.91560    1.26852    0.91518   1.00
C2       0.91561    1.06148    0.91515   1.00
C3       0.95004    1.24810    0.92059   1.00
C3       0.94814    1.08190    0.92768   1.00
C3       0.88104    1.24806    0.90809   1.00
C3       0.88213    1.08194    0.90401   1.00
H1       0.97829    1.19388    0.92271   1.00
H1       0.97367    1.13612    0.93996   1.00
C5       0.84489    1.18565    0.89931   1.00
C5       0.84643    1.14435    0.89354   1.00
H1       0.97704    1.26386    0.92520   1.00
H1       0.97383    1.06614    0.93718   1.00
H1       0.85546    1.26553    0.90264   1.00
H1       0.85725    1.06447    0.89594   1.00
C6       0.80588    1.20734    0.89846   1.00
C6       0.81223    1.12266    0.87478   1.00
H2       0.78218    1.18858    0.91007   1.00
H2       0.80552    1.23237    0.91880   1.00
C6       0.79652    1.22224    0.85722   1.00
H2       0.79750    1.14142    0.85288   1.00
H2       0.82208    1.09763    0.85698   1.00
C6       0.78350    1.10776    0.90581   1.00
H2       0.79570    1.19774    0.83595   1.00
C6       0.75729    1.24332    0.85675   1.00
H2       0.81980    1.24260    0.84726   1.00
C6       0.74929    1.08668    0.88661   1.00
H2       0.79869    1.08740    0.92608   1.00
H2       0.77216    1.13226    0.92383   1.00
H2       0.73350    1.22322    0.86579   1.00
H2       0.75781    1.26880    0.87680   1.00
H2       0.75089    1.25398    0.82682   1.00
H2       0.73321    1.10678    0.86689   1.00
H2       0.75976    1.06120    0.86951   1.00
H2       0.72878    1.07602    0.90934   1.00
C4       0.64433    0.91425    0.91480   1.00
C4       0.68567    0.91575    0.91520   1.00
C3       0.62256    0.91980    0.87989   1.00
C3       0.70744    0.92839    0.88219   1.00
C4       0.62350    0.90734    0.95000   1.00
C4       0.70650    0.90414    0.94914   1.00
C2       0.56148    0.91518    0.91440   1.00
C2       0.76852    0.91515    0.91439   1.00
C3       0.58190    0.92059    0.87996   1.00
C3       0.74810    0.92768    0.88186   1.00
C3       0.58194    0.90809    0.94896   1.00
C3       0.74806    0.90401    0.94787   1.00
H1       0.63612    0.92271    0.85171   1.00
H1       0.69388    0.93996    0.85633   1.00
C5       0.64435    0.89931    0.98511   1.00
C5       0.68565    0.89354    0.98357   1.00
H1       0.56614    0.92520    0.85296   1.00
H1       0.76386    0.93718    0.85617   1.00
H1       0.56447    0.90264    0.97454   1.00
H1       0.76553    0.89594    0.97275   1.00
C6       0.62266    0.89846    1.02412   1.00
C6       0.70734    0.87478    1.01777   1.00
H2       0.64142    0.91007    1.04782   1.00
H2       0.59763    0.91880    1.02448   1.00
C6       0.60776    0.85722    1.03348   1.00
H2       0.68858    0.85288    1.03250   1.00
H2       0.73237    0.85698    1.00792   1.00
C6       0.72224    0.90581    1.04650   1.00
H2       0.63226    0.83595    1.03430   1.00
C6       0.58668    0.85675    1.07271   1.00
H2       0.58740    0.84726    1.01020   1.00
C6       0.74332    0.88661    1.08071   1.00
H2       0.74260    0.92608    1.03131   1.00
H2       0.69774    0.92383    1.05784   1.00
H2       0.60678    0.86579    1.09650   1.00
H2       0.56120    0.87680    1.07219   1.00
H2       0.57602    0.82682    1.07911   1.00
H2       0.72322    0.86689    1.09679   1.00
H2       0.76880    0.86951    1.07024   1.00
H2       0.75398    0.90934    1.10122   1.00
C4       1.18567    0.91425    0.91520   1.00
C4       1.14433    0.91575    0.91480   1.00
C3       1.20744    0.91980    0.95011   1.00
C3       1.12256    0.92839    0.94781   1.00
C4       1.20650    0.90734    0.88000   1.00
C4       1.12350    0.90414    0.88086   1.00
C2       1.26852    0.91518    0.91560   1.00
C2       1.06148    0.91515    0.91561   1.00
C3       1.24810    0.92059    0.95004   1.00
C3       1.08190    0.92768    0.94814   1.00
C3       1.24806    0.90809    0.88104   1.00
C3       1.08194    0.90401    0.88213   1.00
H1       1.19388    0.92271    0.97829   1.00
H1       1.13612    0.93996    0.97367   1.00
C5       1.18565    0.89931    0.84489   1.00
C5       1.14435    0.89354    0.84643   1.00
H1       1.26386    0.92520    0.97704   1.00
H1       1.06614    0.93718    0.97383   1.00
H1       1.26553    0.90264    0.85546   1.00
H1       1.06447    0.89594    0.85725   1.00
C6       1.20734    0.89846    0.80588   1.00
C6       1.12266    0.87478    0.81223   1.00
H2       1.18858    0.91007    0.78218   1.00
H2       1.23237    0.91880    0.80552   1.00
C6       1.22224    0.85722    0.79652   1.00
H2       1.14142    0.85288    0.79750   1.00
H2       1.09763    0.85698    0.82208   1.00
C6       1.10776    0.90581    0.78350   1.00
H2       1.19774    0.83595    0.79570   1.00
C6       1.24332    0.85675    0.75729   1.00
H2       1.24260    0.84726    0.81980   1.00
C6       1.08668    0.88661    0.74929   1.00
H2       1.08740    0.92608    0.79869   1.00
H2       1.13226    0.92383    0.77216   1.00
H2       1.22322    0.86579    0.73350   1.00
H2       1.26880    0.87680    0.75781   1.00
H2       1.25398    0.82682    0.75089   1.00
H2       1.10678    0.86689    0.73321   1.00
H2       1.06120    0.86951    0.75976   1.00
H2       1.07602    0.90934    0.72878   1.00
C4       0.91480    0.64433    0.91425   1.00
C4       0.91520    0.68567    0.91575   1.00
C3       0.87989    0.62256    0.91980   1.00
C3       0.88219    0.70744    0.92839   1.00
C4       0.95000    0.62350    0.90734   1.00
C4       0.94914    0.70650    0.90414   1.00
C2       0.91440    0.56148    0.91518   1.00
C2       0.91439    0.76852    0.91515   1.00
C3       0.87996    0.58190    0.92059   1.00
C3       0.88186    0.74810    0.92768   1.00
C3       0.94896    0.58194    0.90809   1.00
C3       0.94787    0.74806    0.90401   1.00
H1       0.85171    0.63612    0.92271   1.00
H1       0.85633    0.69388    0.93996   1.00
C5       0.98511    0.64435    0.89931   1.00
C5       0.98357    0.68565    0.89354   1.00
H1       0.85296    0.56614    0.92520   1.00
H1       0.85617    0.76386    0.93718   1.00
H1       0.97454    0.56447    0.90264   1.00
H1       0.97275    0.76553    0.89594   1.00
C6       1.02412    0.62266    0.89846   1.00
C6       1.01777    0.70734    0.87478   1.00
H2       1.04782    0.64142    0.91007   1.00
H2       1.02448    0.59763    0.91880   1.00
C6       1.03348    0.60776    0.85722   1.00
H2       1.03250    0.68858    0.85288   1.00
H2       1.00792    0.73237    0.85698   1.00
C6       1.04650    0.72224    0.90581   1.00
H2       1.03430    0.63226    0.83595   1.00
C6       1.07271    0.58668    0.85675   1.00
H2       1.01020    0.58740    0.84726   1.00
C6       1.08071    0.74332    0.88661   1.00
H2       1.03131    0.74260    0.92608   1.00
H2       1.05784    0.69774    0.92383   1.00
H2       1.09650    0.60678    0.86579   1.00
H2       1.07219    0.56120    0.87680   1.00
H2       1.07911    0.57602    0.82682   1.00
H2       1.09679    0.72322    0.86689   1.00
H2       1.07024    0.76880    0.86951   1.00
H2       1.10122    0.75398    0.90934   1.00
C4       0.91425    0.91480    0.64433   1.00
C4       0.91575    0.91520    0.68567   1.00
C3       0.91980    0.87989    0.62256   1.00
C3       0.92839    0.88219    0.70744   1.00
C4       0.90734    0.95000    0.62350   1.00
C4       0.90414    0.94914    0.70650   1.00
C2       0.91518    0.91440    0.56148   1.00
C2       0.91515    0.91439    0.76852   1.00
C3       0.92059    0.87996    0.58190   1.00
C3       0.92768    0.88186    0.74810   1.00
C3       0.90809    0.94896    0.58194   1.00
C3       0.90401    0.94787    0.74806   1.00
H1       0.92271    0.85171    0.63612   1.00
H1       0.93996    0.85633    0.69388   1.00
C5       0.89931    0.98511    0.64435   1.00
C5       0.89354    0.98357    0.68565   1.00
H1       0.92520    0.85296    0.56614   1.00
H1       0.93718    0.85617    0.76386   1.00
H1       0.90264    0.97454    0.56447   1.00
H1       0.89594    0.97275    0.76553   1.00
C6       0.89846    1.02412    0.62266   1.00
C6       0.87478    1.01777    0.70734   1.00
H2       0.91007    1.04782    0.64142   1.00
H2       0.91880    1.02448    0.59763   1.00
C6       0.85722    1.03348    0.60776   1.00
H2       0.85288    1.03250    0.68858   1.00
H2       0.85698    1.00792    0.73237   1.00
C6       0.90581    1.04650    0.72224   1.00
H2       0.83595    1.03430    0.63226   1.00
C6       0.85675    1.07271    0.58668   1.00
H2       0.84726    1.01020    0.58740   1.00
C6       0.88661    1.08071    0.74332   1.00
H2       0.92608    1.03131    0.74260   1.00
H2       0.92383    1.05784    0.69774   1.00
H2       0.86579    1.09650    0.60678   1.00
H2       0.87680    1.07219    0.56120   1.00
H2       0.82682    1.07911    0.57602   1.00
H2       0.86689    1.09679    0.72322   1.00
H2       0.86951    1.07024    0.76880   1.00
H2       0.90934    1.10122    0.75398   1.00
C4       0.41425    0.41520    1.18567   1.00
C4       0.41575    0.41480    1.14433   1.00
C3       0.41980    0.45011    1.20744   1.00
C3       0.42839    0.44781    1.12256   1.00
C4       0.40734    0.38000    1.20650   1.00
C4       0.40414    0.38086    1.12350   1.00
C2       0.41518    0.41560    1.26852   1.00
C2       0.41515    0.41561    1.06148   1.00
C3       0.42059    0.45004    1.24810   1.00
C3       0.42768    0.44814    1.08190   1.00
C3       0.40809    0.38104    1.24806   1.00
C3       0.40401    0.38213    1.08194   1.00
H1       0.42271    0.47829    1.19388   1.00
H1       0.43996    0.47367    1.13612   1.00
C5       0.39931    0.34489    1.18565   1.00
C5       0.39354    0.34643    1.14435   1.00
H1       0.42520    0.47704    1.26386   1.00
H1       0.43718    0.47383    1.06614   1.00
H1       0.40264    0.35546    1.26553   1.00
H1       0.39594    0.35725    1.06447   1.00
C6       0.39846    0.30588    1.20734   1.00
C6       0.37478    0.31223    1.12266   1.00
H2       0.41007    0.28218    1.18858   1.00
H2       0.41880    0.30552    1.23237   1.00
C6       0.35722    0.29652    1.22224   1.00
H2       0.35288    0.29750    1.14142   1.00
H2       0.35698    0.32208    1.09763   1.00
C6       0.40581    0.28350    1.10776   1.00
H2       0.33595    0.29570    1.19774   1.00
C6       0.35675    0.25729    1.24332   1.00
H2       0.34726    0.31980    1.24260   1.00
C6       0.38661    0.24929    1.08668   1.00
H2       0.42608    0.29869    1.08740   1.00
H2       0.42383    0.27216    1.13226   1.00
H2       0.36579    0.23350    1.22322   1.00
H2       0.37680    0.25781    1.26880   1.00
H2       0.32682    0.25089    1.25398   1.00
H2       0.36689    0.23321    1.10678   1.00
H2       0.36951    0.25976    1.06120   1.00
H2       0.40934    0.22878    1.07602   1.00
C4       0.41520    0.68567    0.91425   1.00
C4       0.41480    0.64433    0.91575   1.00
C3       0.45011    0.70744    0.91980   1.00
C3       0.44781    0.62256    0.92839   1.00
C4       0.38000    0.70650    0.90734   1.00
C4       0.38086    0.62350    0.90414   1.00
C2       0.41560    0.76852    0.91518   1.00
C2       0.41561    0.56148    0.91515   1.00
C3       0.45004    0.74810    0.92059   1.00
C3       0.44814    0.58190    0.92768   1.00
C3       0.38104    0.74806    0.90809   1.00
C3       0.38213    0.58194    0.90401   1.00
H1       0.47829    0.69388    0.92271   1.00
H1       0.47367    0.63612    0.93996   1.00
C5       0.34489    0.68565    0.89931   1.00
C5       0.34643    0.64435    0.89354   1.00
H1       0.47704    0.76386    0.92520   1.00
H1       0.47383    0.56614    0.93718   1.00
H1       0.35546    0.76553    0.90264   1.00
H1       0.35725    0.56447    0.89594   1.00
C6       0.30588    0.70734    0.89846   1.00
C6       0.31223    0.62266    0.87478   1.00
H2       0.28218    0.68858    0.91007   1.00
H2       0.30552    0.73237    0.91880   1.00
C6       0.29652    0.72224    0.85722   1.00
H2       0.29750    0.64142    0.85288   1.00
H2       0.32208    0.59763    0.85698   1.00
C6       0.28350    0.60776    0.90581   1.00
H2       0.29570    0.69774    0.83595   1.00
C6       0.25729    0.74332    0.85675   1.00
H2       0.31980    0.74260    0.84726   1.00
C6       0.24929    0.58668    0.88661   1.00
H2       0.29869    0.58740    0.92608   1.00
H2       0.27216    0.63226    0.92383   1.00
H2       0.23350    0.72322    0.86579   1.00
H2       0.25781    0.76880    0.87680   1.00
H2       0.25089    0.75398    0.82682   1.00
H2       0.23321    0.60678    0.86689   1.00
H2       0.25976    0.56120    0.86951   1.00
H2       0.22878    0.57602    0.90934   1.00
C4       0.14433    0.41425    0.91480   1.00
C4       0.18567    0.41575    0.91520   1.00
C3       0.12256    0.41980    0.87989   1.00
C3       0.20744    0.42839    0.88219   1.00
C4       0.12350    0.40734    0.95000   1.00
C4       0.20650    0.40414    0.94914   1.00
C2       0.06148    0.41518    0.91440   1.00
C2       0.26852    0.41515    0.91439   1.00
C3       0.08190    0.42059    0.87996   1.00
C3       0.24810    0.42768    0.88186   1.00
C3       0.08194    0.40809    0.94896   1.00
C3       0.24806    0.40401    0.94787   1.00
H1       0.13612    0.42271    0.85171   1.00
H1       0.19388    0.43996    0.85633   1.00
C5       0.14435    0.39931    0.98511   1.00
C5       0.18565    0.39354    0.98357   1.00
H1       0.06614    0.42520    0.85296   1.00
H1       0.26386    0.43718    0.85617   1.00
H1       0.06447    0.40264    0.97454   1.00
H1       0.26553    0.39594    0.97275   1.00
C6       0.12266    0.39846    1.02412   1.00
C6       0.20734    0.37478    1.01777   1.00
H2       0.14142    0.41007    1.04782   1.00
H2       0.09763    0.41880    1.02448   1.00
C6       0.10776    0.35722    1.03348   1.00
H2       0.18858    0.35288    1.03250   1.00
H2       0.23237    0.35698    1.00792   1.00
C6       0.22224    0.40581    1.04650   1.00
H2       0.13226    0.33595    1.03430   1.00
C6       0.08668    0.35675    1.07271   1.00
H2       0.08740    0.34726    1.01020   1.00
C6       0.24332    0.38661    1.08071   1.00
H2       0.24260    0.42608    1.03131   1.00
H2       0.19774    0.42383    1.05784   1.00
H2       0.10678    0.36579    1.09650   1.00
H2       0.06120    0.37680    1.07219   1.00
H2       0.07602    0.32682    1.07911   1.00
H2       0.22322    0.36689    1.09679   1.00
H2       0.26880    0.36951    1.07024   1.00
H2       0.25398    0.40934    1.10122   1.00
C4       0.68567    0.41425    0.91520   1.00
C4       0.64433    0.41575    0.91480   1.00
C3       0.70744    0.41980    0.95011   1.00
C3       0.62256    0.42839    0.94781   1.00
C4       0.70650    0.40734    0.88000   1.00
C4       0.62350    0.40414    0.88086   1.00
C2       0.76852    0.41518    0.91560   1.00
C2       0.56148    0.41515    0.91561   1.00
C3       0.74810    0.42059    0.95004   1.00
C3       0.58190    0.42768    0.94814   1.00
C3       0.74806    0.40809    0.88104   1.00
C3       0.58194    0.40401    0.88213   1.00
H1       0.69388    0.42271    0.97829   1.00
H1       0.63612    0.43996    0.97367   1.00
C5       0.68565    0.39931    0.84489   1.00
C5       0.64435    0.39354    0.84643   1.00
H1       0.76386    0.42520    0.97704   1.00
H1       0.56614    0.43718    0.97383   1.00
H1       0.76553    0.40264    0.85546   1.00
H1       0.56447    0.39594    0.85725   1.00
C6       0.70734    0.39846    0.80588   1.00
C6       0.62266    0.37478    0.81223   1.00
H2       0.68858    0.41007    0.78218   1.00
H2       0.73237    0.41880    0.80552   1.00
C6       0.72224    0.35722    0.79652   1.00
H2       0.64142    0.35288    0.79750   1.00
H2       0.59763    0.35698    0.82208   1.00
C6       0.60776    0.40581    0.78350   1.00
H2       0.69774    0.33595    0.79570   1.00
C6       0.74332    0.35675    0.75729   1.00
H2       0.74260    0.34726    0.81980   1.00
C6       0.58668    0.38661    0.74929   1.00
H2       0.58740    0.42608    0.79869   1.00
H2       0.63226    0.42383    0.77216   1.00
H2       0.72322    0.36579    0.73350   1.00
H2       0.76880    0.37680    0.75781   1.00
H2       0.75398    0.32682    0.75089   1.00
H2       0.60678    0.36689    0.73321   1.00
H2       0.56120    0.36951    0.75976   1.00
H2       0.57602    0.40934    0.72878   1.00
C4       0.41480    0.14433    0.91425   1.00
C4       0.41520    0.18567    0.91575   1.00
C3       0.37989    0.12256    0.91980   1.00
C3       0.38219    0.20744    0.92839   1.00
C4       0.45000    0.12350    0.90734   1.00
C4       0.44914    0.20650    0.90414   1.00
C2       0.41440    0.06148    0.91518   1.00
C2       0.41439    0.26852    0.91515   1.00
C3       0.37996    0.08190    0.92059   1.00
C3       0.38186    0.24810    0.92768   1.00
C3       0.44896    0.08194    0.90809   1.00
C3       0.44787    0.24806    0.90401   1.00
H1       0.35171    0.13612    0.92271   1.00
H1       0.35633    0.19388    0.93996   1.00
C5       0.48511    0.14435    0.89931   1.00
C5       0.48357    0.18565    0.89354   1.00
H1       0.35296    0.06614    0.92520   1.00
H1       0.35617    0.26386    0.93718   1.00
H1       0.47454    0.06447    0.90264   1.00
H1       0.47275    0.26553    0.89594   1.00
C6       0.52412    0.12266    0.89846   1.00
C6       0.51777    0.20734    0.87478   1.00
H2       0.54782    0.14142    0.91007   1.00
H2       0.52448    0.09763    0.91880   1.00
C6       0.53348    0.10776    0.85722   1.00
H2       0.53250    0.18858    0.85288   1.00
H2       0.50792    0.23237    0.85698   1.00
C6       0.54650    0.22224    0.90581   1.00
H2       0.53430    0.13226    0.83595   1.00
C6       0.57271    0.08668    0.85675   1.00
H2       0.51020    0.08740    0.84726   1.00
C6       0.58071    0.24332    0.88661   1.00
H2       0.53131    0.24260    0.92608   1.00
H2       0.55784    0.19774    0.92383   1.00
H2       0.59650    0.10678    0.86579   1.00
H2       0.57219    0.06120    0.87680   1.00
H2       0.57911    0.07602    0.82682   1.00
H2       0.59679    0.22322    0.86689   1.00
H2       0.57024    0.26880    0.86951   1.00
H2       0.60122    0.25398    0.90934   1.00
C4       0.41425    0.41480    0.64433   1.00
C4       0.41575    0.41520    0.68567   1.00
C3       0.41980    0.37989    0.62256   1.00
C3       0.42839    0.38219    0.70744   1.00
C4       0.40734    0.45000    0.62350   1.00
C4       0.40414    0.44914    0.70650   1.00
C2       0.41518    0.41440    0.56148   1.00
C2       0.41515    0.41439    0.76852   1.00
C3       0.42059    0.37996    0.58190   1.00
C3       0.42768    0.38186    0.74810   1.00
C3       0.40809    0.44896    0.58194   1.00
C3       0.40401    0.44787    0.74806   1.00
H1       0.42271    0.35171    0.63612   1.00
H1       0.43996    0.35633    0.69388   1.00
C5       0.39931    0.48511    0.64435   1.00
C5       0.39354    0.48357    0.68565   1.00
H1       0.42520    0.35296    0.56614   1.00
H1       0.43718    0.35617    0.76386   1.00
H1       0.40264    0.47454    0.56447   1.00
H1       0.39594    0.47275    0.76553   1.00
C6       0.39846    0.52412    0.62266   1.00
C6       0.37478    0.51777    0.70734   1.00
H2       0.41007    0.54782    0.64142   1.00
H2       0.41880    0.52448    0.59763   1.00
C6       0.35722    0.53348    0.60776   1.00
H2       0.35288    0.53250    0.68858   1.00
H2       0.35698    0.50792    0.73237   1.00
C6       0.40581    0.54650    0.72224   1.00
H2       0.33595    0.53430    0.63226   1.00
C6       0.35675    0.57271    0.58668   1.00
H2       0.34726    0.51020    0.58740   1.00
C6       0.38661    0.58071    0.74332   1.00
H2       0.42608    0.53131    0.74260   1.00
H2       0.42383    0.55784    0.69774   1.00
H2       0.36579    0.59650    0.60678   1.00
H2       0.37680    0.57219    0.56120   1.00
H2       0.32682    0.57911    0.57602   1.00
H2       0.36689    0.59679    0.72322   1.00
H2       0.36951    0.57024    0.76880   1.00
H2       0.40934    0.60122    0.75398   1.00
C4       0.41425    0.91520    0.68567   1.00
C4       0.41575    0.91480    0.64433   1.00
C3       0.41980    0.95011    0.70744   1.00
C3       0.42839    0.94781    0.62256   1.00
C4       0.40734    0.88000    0.70650   1.00
C4       0.40414    0.88086    0.62350   1.00
C2       0.41518    0.91560    0.76852   1.00
C2       0.41515    0.91561    0.56148   1.00
C3       0.42059    0.95004    0.74810   1.00
C3       0.42768    0.94814    0.58190   1.00
C3       0.40809    0.88104    0.74806   1.00
C3       0.40401    0.88213    0.58194   1.00
H1       0.42271    0.97829    0.69388   1.00
H1       0.43996    0.97367    0.63612   1.00
C5       0.39931    0.84489    0.68565   1.00
C5       0.39354    0.84643    0.64435   1.00
H1       0.42520    0.97704    0.76386   1.00
H1       0.43718    0.97383    0.56614   1.00
H1       0.40264    0.85546    0.76553   1.00
H1       0.39594    0.85725    0.56447   1.00
C6       0.39846    0.80588    0.70734   1.00
C6       0.37478    0.81223    0.62266   1.00
H2       0.41007    0.78218    0.68858   1.00
H2       0.41880    0.80552    0.73237   1.00
C6       0.35722    0.79652    0.72224   1.00
H2       0.35288    0.79750    0.64142   1.00
H2       0.35698    0.82208    0.59763   1.00
C6       0.40581    0.78350    0.60776   1.00
H2       0.33595    0.79570    0.69774   1.00
C6       0.35675    0.75729    0.74332   1.00
H2       0.34726    0.81980    0.74260   1.00
C6       0.38661    0.74929    0.58668   1.00
H2       0.42608    0.79869    0.58740   1.00
H2       0.42383    0.77216    0.63226   1.00
H2       0.36579    0.73350    0.72322   1.00
H2       0.37680    0.75781    0.76880   1.00
H2       0.32682    0.75089    0.75398   1.00
H2       0.36689    0.73321    0.60678   1.00
H2       0.36951    0.75976    0.56120   1.00
H2       0.40934    0.72878    0.57602   1.00
C4       0.41520    1.18567    0.41425   1.00
C4       0.41480    1.14433    0.41575   1.00
C3       0.45011    1.20744    0.41980   1.00
C3       0.44781    1.12256    0.42839   1.00
C4       0.38000    1.20650    0.40734   1.00
C4       0.38086    1.12350    0.40414   1.00
C2       0.41560    1.26852    0.41518   1.00
C2       0.41561    1.06148    0.41515   1.00
C3       0.45004    1.24810    0.42059   1.00
C3       0.44814    1.08190    0.42768   1.00
C3       0.38104    1.24806    0.40809   1.00
C3       0.38213    1.08194    0.40401   1.00
H1       0.47829    1.19388    0.42271   1.00
H1       0.47367    1.13612    0.43996   1.00
C5       0.34489    1.18565    0.39931   1.00
C5       0.34643    1.14435    0.39354   1.00
H1       0.47704    1.26386    0.42520   1.00
H1       0.47383    1.06614    0.43718   1.00
H1       0.35546    1.26553    0.40264   1.00
H1       0.35725    1.06447    0.39594   1.00
C6       0.30588    1.20734    0.39846   1.00
C6       0.31223    1.12266    0.37478   1.00
H2       0.28218    1.18858    0.41007   1.00
H2       0.30552    1.23237    0.41880   1.00
C6       0.29652    1.22224    0.35722   1.00
H2       0.29750    1.14142    0.35288   1.00
H2       0.32208    1.09763    0.35698   1.00
C6       0.28350    1.10776    0.40581   1.00
H2       0.29570    1.19774    0.33595   1.00
C6       0.25729    1.24332    0.35675   1.00
H2       0.31980    1.24260    0.34726   1.00
C6       0.24929    1.08668    0.38661   1.00
H2       0.29869    1.08740    0.42608   1.00
H2       0.27216    1.13226    0.42383   1.00
H2       0.23350    1.22322    0.36579   1.00
H2       0.25781    1.26880    0.37680   1.00
H2       0.25089    1.25398    0.32682   1.00
H2       0.23321    1.10678    0.36689   1.00
H2       0.25976    1.06120    0.36951   1.00
H2       0.22878    1.07602    0.40934   1.00
C4       0.14433    0.91425    0.41480   1.00
C4       0.18567    0.91575    0.41520   1.00
C3       0.12256    0.91980    0.37989   1.00
C3       0.20744    0.92839    0.38219   1.00
C4       0.12350    0.90734    0.45000   1.00
C4       0.20650    0.90414    0.44914   1.00
C2       0.06148    0.91518    0.41440   1.00
C2       0.26852    0.91515    0.41439   1.00
C3       0.08190    0.92059    0.37996   1.00
C3       0.24810    0.92768    0.38186   1.00
C3       0.08194    0.90809    0.44896   1.00
C3       0.24806    0.90401    0.44787   1.00
H1       0.13612    0.92271    0.35171   1.00
H1       0.19388    0.93996    0.35633   1.00
C5       0.14435    0.89931    0.48511   1.00
C5       0.18565    0.89354    0.48357   1.00
H1       0.06614    0.92520    0.35296   1.00
H1       0.26386    0.93718    0.35617   1.00
H1       0.06447    0.90264    0.47454   1.00
H1       0.26553    0.89594    0.47275   1.00
C6       0.12266    0.89846    0.52412   1.00
C6       0.20734    0.87478    0.51777   1.00
H2       0.14142    0.91007    0.54782   1.00
H2       0.09763    0.91880    0.52448   1.00
C6       0.10776    0.85722    0.53348   1.00
H2       0.18858    0.85288    0.53250   1.00
H2       0.23237    0.85698    0.50792   1.00
C6       0.22224    0.90581    0.54650   1.00
H2       0.13226    0.83595    0.53430   1.00
C6       0.08668    0.85675    0.57271   1.00
H2       0.08740    0.84726    0.51020   1.00
C6       0.24332    0.88661    0.58071   1.00
H2       0.24260    0.92608    0.53131   1.00
H2       0.19774    0.92383    0.55784   1.00
H2       0.10678    0.86579    0.59650   1.00
H2       0.06120    0.87680    0.57219   1.00
H2       0.07602    0.82682    0.57911   1.00
H2       0.22322    0.86689    0.59679   1.00
H2       0.26880    0.86951    0.57024   1.00
H2       0.25398    0.90934    0.60122   1.00
C4       0.68567    0.91425    0.41520   1.00
C4       0.64433    0.91575    0.41480   1.00
C3       0.70744    0.91980    0.45011   1.00
C3       0.62256    0.92839    0.44781   1.00
C4       0.70650    0.90734    0.38000   1.00
C4       0.62350    0.90414    0.38086   1.00
C2       0.76852    0.91518    0.41560   1.00
C2       0.56148    0.91515    0.41561   1.00
C3       0.74810    0.92059    0.45004   1.00
C3       0.58190    0.92768    0.44814   1.00
C3       0.74806    0.90809    0.38104   1.00
C3       0.58194    0.90401    0.38213   1.00
H1       0.69388    0.92271    0.47829   1.00
H1       0.63612    0.93996    0.47367   1.00
C5       0.68565    0.89931    0.34489   1.00
C5       0.64435    0.89354    0.34643   1.00
H1       0.76386    0.92520    0.47704   1.00
H1       0.56614    0.93718    0.47383   1.00
H1       0.76553    0.90264    0.35546   1.00
H1       0.56447    0.89594    0.35725   1.00
C6       0.70734    0.89846    0.30588   1.00
C6       0.62266    0.87478    0.31223   1.00
H2       0.68858    0.91007    0.28218   1.00
H2       0.73237    0.91880    0.30552   1.00
C6       0.72224    0.85722    0.29652   1.00
H2       0.64142    0.85288    0.29750   1.00
H2       0.59763    0.85698    0.32208   1.00
C6       0.60776    0.90581    0.28350   1.00
H2       0.69774    0.83595    0.29570   1.00
C6       0.74332    0.85675    0.25729   1.00
H2       0.74260    0.84726    0.31980   1.00
C6       0.58668    0.88661    0.24929   1.00
H2       0.58740    0.92608    0.29869   1.00
H2       0.63226    0.92383    0.27216   1.00
H2       0.72322    0.86579    0.23350   1.00
H2       0.76880    0.87680    0.25781   1.00
H2       0.75398    0.82682    0.25089   1.00
H2       0.60678    0.86689    0.23321   1.00
H2       0.56120    0.86951    0.25976   1.00
H2       0.57602    0.90934    0.22878   1.00
C4       0.41480    0.64433    0.41425   1.00
C4       0.41520    0.68567    0.41575   1.00
C3       0.37989    0.62256    0.41980   1.00
C3       0.38219    0.70744    0.42839   1.00
C4       0.45000    0.62350    0.40734   1.00
C4       0.44914    0.70650    0.40414   1.00
C2       0.41440    0.56148    0.41518   1.00
C2       0.41439    0.76852    0.41515   1.00
C3       0.37996    0.58190    0.42059   1.00
C3       0.38186    0.74810    0.42768   1.00
C3       0.44896    0.58194    0.40809   1.00
C3       0.44787    0.74806    0.40401   1.00
H1       0.35171    0.63612    0.42271   1.00
H1       0.35633    0.69388    0.43996   1.00
C5       0.48511    0.64435    0.39931   1.00
C5       0.48357    0.68565    0.39354   1.00
H1       0.35296    0.56614    0.42520   1.00
H1       0.35617    0.76386    0.43718   1.00
H1       0.47454    0.56447    0.40264   1.00
H1       0.47275    0.76553    0.39594   1.00
C6       0.52412    0.62266    0.39846   1.00
C6       0.51777    0.70734    0.37478   1.00
H2       0.54782    0.64142    0.41007   1.00
H2       0.52448    0.59763    0.41880   1.00
C6       0.53348    0.60776    0.35722   1.00
H2       0.53250    0.68858    0.35288   1.00
H2       0.50792    0.73237    0.35698   1.00
C6       0.54650    0.72224    0.40581   1.00
H2       0.53430    0.63226    0.33595   1.00
C6       0.57271    0.58668    0.35675   1.00
H2       0.51020    0.58740    0.34726   1.00
C6       0.58071    0.74332    0.38661   1.00
H2       0.53131    0.74260    0.42608   1.00
H2       0.55784    0.69774    0.42383   1.00
H2       0.59650    0.60678    0.36579   1.00
H2       0.57219    0.56120    0.37680   1.00
H2       0.57911    0.57602    0.32682   1.00
H2       0.59679    0.72322    0.36689   1.00
H2       0.57024    0.76880    0.36951   1.00
H2       0.60122    0.75398    0.40934   1.00
C4       0.41425    0.91480    0.14433   1.00
C4       0.41575    0.91520    0.18567   1.00
C3       0.41980    0.87989    0.12256   1.00
C3       0.42839    0.88219    0.20744   1.00
C4       0.40734    0.95000    0.12350   1.00
C4       0.40414    0.94914    0.20650   1.00
C2       0.41518    0.91440    0.06148   1.00
C2       0.41515    0.91439    0.26852   1.00
C3       0.42059    0.87996    0.08190   1.00
C3       0.42768    0.88186    0.24810   1.00
C3       0.40809    0.94896    0.08194   1.00
C3       0.40401    0.94787    0.24806   1.00
H1       0.42271    0.85171    0.13612   1.00
H1       0.43996    0.85633    0.19388   1.00
C5       0.39931    0.98511    0.14435   1.00
C5       0.39354    0.98357    0.18565   1.00
H1       0.42520    0.85296    0.06614   1.00
H1       0.43718    0.85617    0.26386   1.00
H1       0.40264    0.97454    0.06447   1.00
H1       0.39594    0.97275    0.26553   1.00
C6       0.39846    1.02412    0.12266   1.00
C6       0.37478    1.01777    0.20734   1.00
H2       0.41007    1.04782    0.14142   1.00
H2       0.41880    1.02448    0.09763   1.00
C6       0.35722    1.03348    0.10776   1.00
H2       0.35288    1.03250    0.18858   1.00
H2       0.35698    1.00792    0.23237   1.00
C6       0.40581    1.04650    0.22224   1.00
H2       0.33595    1.03430    0.13226   1.00
C6       0.35675    1.07271    0.08668   1.00
H2       0.34726    1.01020    0.08740   1.00
C6       0.38661    1.08071    0.24332   1.00
H2       0.42608    1.03131    0.24260   1.00
H2       0.42383    1.05784    0.19774   1.00
H2       0.36579    1.09650    0.10678   1.00
H2       0.37680    1.07219    0.06120   1.00
H2       0.32682    1.07911    0.07602   1.00
H2       0.36689    1.09679    0.22322   1.00
H2       0.36951    1.07024    0.26880   1.00
H2       0.40934    1.10122    0.25398   1.00
C4       0.91425    0.41520    0.68567   1.00
C4       0.91575    0.41480    0.64433   1.00
C3       0.91980    0.45011    0.70744   1.00
C3       0.92839    0.44781    0.62256   1.00
C4       0.90734    0.38000    0.70650   1.00
C4       0.90414    0.38086    0.62350   1.00
C2       0.91518    0.41560    0.76852   1.00
C2       0.91515    0.41561    0.56148   1.00
C3       0.92059    0.45004    0.74810   1.00
C3       0.92768    0.44814    0.58190   1.00
C3       0.90809    0.38104    0.74806   1.00
C3       0.90401    0.38213    0.58194   1.00
H1       0.92271    0.47829    0.69388   1.00
H1       0.93996    0.47367    0.63612   1.00
C5       0.89931    0.34489    0.68565   1.00
C5       0.89354    0.34643    0.64435   1.00
H1       0.92520    0.47704    0.76386   1.00
H1       0.93718    0.47383    0.56614   1.00
H1       0.90264    0.35546    0.76553   1.00
H1       0.89594    0.35725    0.56447   1.00
C6       0.89846    0.30588    0.70734   1.00
C6       0.87478    0.31223    0.62266   1.00
H2       0.91007    0.28218    0.68858   1.00
H2       0.91880    0.30552    0.73237   1.00
C6       0.85722    0.29652    0.72224   1.00
H2       0.85288    0.29750    0.64142   1.00
H2       0.85698    0.32208    0.59763   1.00
C6       0.90581    0.28350    0.60776   1.00
H2       0.83595    0.29570    0.69774   1.00
C6       0.85675    0.25729    0.74332   1.00
H2       0.84726    0.31980    0.74260   1.00
C6       0.88661    0.24929    0.58668   1.00
H2       0.92608    0.29869    0.58740   1.00
H2       0.92383    0.27216    0.63226   1.00
H2       0.86579    0.23350    0.72322   1.00
H2       0.87680    0.25781    0.76880   1.00
H2       0.82682    0.25089    0.75398   1.00
H2       0.86689    0.23321    0.60678   1.00
H2       0.86951    0.25976    0.56120   1.00
H2       0.90934    0.22878    0.57602   1.00
C4       0.91520    0.68567    0.41425   1.00
C4       0.91480    0.64433    0.41575   1.00
C3       0.95011    0.70744    0.41980   1.00
C3       0.94781    0.62256    0.42839   1.00
C4       0.88000    0.70650    0.40734   1.00
C4       0.88086    0.62350    0.40414   1.00
C2       0.91560    0.76852    0.41518   1.00
C2       0.91561    0.56148    0.41515   1.00
C3       0.95004    0.74810    0.42059   1.00
C3       0.94814    0.58190    0.42768   1.00
C3       0.88104    0.74806    0.40809   1.00
C3       0.88213    0.58194    0.40401   1.00
H1       0.97829    0.69388    0.42271   1.00
H1       0.97367    0.63612    0.43996   1.00
C5       0.84489    0.68565    0.39931   1.00
C5       0.84643    0.64435    0.39354   1.00
H1       0.97704    0.76386    0.42520   1.00
H1       0.97383    0.56614    0.43718   1.00
H1       0.85546    0.76553    0.40264   1.00
H1       0.85725    0.56447    0.39594   1.00
C6       0.80588    0.70734    0.39846   1.00
C6       0.81223    0.62266    0.37478   1.00
H2       0.78218    0.68858    0.41007   1.00
H2       0.80552    0.73237    0.41880   1.00
C6       0.79652    0.72224    0.35722   1.00
H2       0.79750    0.64142    0.35288   1.00
H2       0.82208    0.59763    0.35698   1.00
C6       0.78350    0.60776    0.40581   1.00
H2       0.79570    0.69774    0.33595   1.00
C6       0.75729    0.74332    0.35675   1.00
H2       0.81980    0.74260    0.34726   1.00
C6       0.74929    0.58668    0.38661   1.00
H2       0.79869    0.58740    0.42608   1.00
H2       0.77216    0.63226    0.42383   1.00
H2       0.73350    0.72322    0.36579   1.00
H2       0.75781    0.76880    0.37680   1.00
H2       0.75089    0.75398    0.32682   1.00
H2       0.73321    0.60678    0.36689   1.00
H2       0.75976    0.56120    0.36951   1.00
H2       0.72878    0.57602    0.40934   1.00
C4       0.64433    0.41425    0.41480   1.00
C4       0.68567    0.41575    0.41520   1.00
C3       0.62256    0.41980    0.37989   1.00
C3       0.70744    0.42839    0.38219   1.00
C4       0.62350    0.40734    0.45000   1.00
C4       0.70650    0.40414    0.44914   1.00
C2       0.56148    0.41518    0.41440   1.00
C2       0.76852    0.41515    0.41439   1.00
C3       0.58190    0.42059    0.37996   1.00
C3       0.74810    0.42768    0.38186   1.00
C3       0.58194    0.40809    0.44896   1.00
C3       0.74806    0.40401    0.44787   1.00
H1       0.63612    0.42271    0.35171   1.00
H1       0.69388    0.43996    0.35633   1.00
C5       0.64435    0.39931    0.48511   1.00
C5       0.68565    0.39354    0.48357   1.00
H1       0.56614    0.42520    0.35296   1.00
H1       0.76386    0.43718    0.35617   1.00
H1       0.56447    0.40264    0.47454   1.00
H1       0.76553    0.39594    0.47275   1.00
C6       0.62266    0.39846    0.52412   1.00
C6       0.70734    0.37478    0.51777   1.00
H2       0.64142    0.41007    0.54782   1.00
H2       0.59763    0.41880    0.52448   1.00
C6       0.60776    0.35722    0.53348   1.00
H2       0.68858    0.35288    0.53250   1.00
H2       0.73237    0.35698    0.50792   1.00
C6       0.72224    0.40581    0.54650   1.00
H2       0.63226    0.33595    0.53430   1.00
C6       0.58668    0.35675    0.57271   1.00
H2       0.58740    0.34726    0.51020   1.00
C6       0.74332    0.38661    0.58071   1.00
H2       0.74260    0.42608    0.53131   1.00
H2       0.69774    0.42383    0.55784   1.00
H2       0.60678    0.36579    0.59650   1.00
H2       0.56120    0.37680    0.57219   1.00
H2       0.57602    0.32682    0.57911   1.00
H2       0.72322    0.36689    0.59679   1.00
H2       0.76880    0.36951    0.57024   1.00
H2       0.75398    0.40934    0.60122   1.00
C4       1.18567    0.41425    0.41520   1.00
C4       1.14433    0.41575    0.41480   1.00
C3       1.20744    0.41980    0.45011   1.00
C3       1.12256    0.42839    0.44781   1.00
C4       1.20650    0.40734    0.38000   1.00
C4       1.12350    0.40414    0.38086   1.00
C2       1.26852    0.41518    0.41560   1.00
C2       1.06148    0.41515    0.41561   1.00
C3       1.24810    0.42059    0.45004   1.00
C3       1.08190    0.42768    0.44814   1.00
C3       1.24806    0.40809    0.38104   1.00
C3       1.08194    0.40401    0.38213   1.00
H1       1.19388    0.42271    0.47829   1.00
H1       1.13612    0.43996    0.47367   1.00
C5       1.18565    0.39931    0.34489   1.00
C5       1.14435    0.39354    0.34643   1.00
H1       1.26386    0.42520    0.47704   1.00
H1       1.06614    0.43718    0.47383   1.00
H1       1.26553    0.40264    0.35546   1.00
H1       1.06447    0.39594    0.35725   1.00
C6       1.20734    0.39846    0.30588   1.00
C6       1.12266    0.37478    0.31223   1.00
H2       1.18858    0.41007    0.28218   1.00
H2       1.23237    0.41880    0.30552   1.00
C6       1.22224    0.35722    0.29652   1.00
H2       1.14142    0.35288    0.29750   1.00
H2       1.09763    0.35698    0.32208   1.00
C6       1.10776    0.40581    0.28350   1.00
H2       1.19774    0.33595    0.29570   1.00
C6       1.24332    0.35675    0.25729   1.00
H2       1.24260    0.34726    0.31980   1.00
C6       1.08668    0.38661    0.24929   1.00
H2       1.08740    0.42608    0.29869   1.00
H2       1.13226    0.42383    0.27216   1.00
H2       1.22322    0.36579    0.23350   1.00
H2       1.26880    0.37680    0.25781   1.00
H2       1.25398    0.32682    0.25089   1.00
H2       1.10678    0.36689    0.23321   1.00
H2       1.06120    0.36951    0.25976   1.00
H2       1.07602    0.40934    0.22878   1.00
C4       0.91480    0.14433    0.41425   1.00
C4       0.91520    0.18567    0.41575   1.00
C3       0.87989    0.12256    0.41980   1.00
C3       0.88219    0.20744    0.42839   1.00
C4       0.95000    0.12350    0.40734   1.00
C4       0.94914    0.20650    0.40414   1.00
C2       0.91440    0.06148    0.41518   1.00
C2       0.91439    0.26852    0.41515   1.00
C3       0.87996    0.08190    0.42059   1.00
C3       0.88186    0.24810    0.42768   1.00
C3       0.94896    0.08194    0.40809   1.00
C3       0.94787    0.24806    0.40401   1.00
H1       0.85171    0.13612    0.42271   1.00
H1       0.85633    0.19388    0.43996   1.00
C5       0.98511    0.14435    0.39931   1.00
C5       0.98357    0.18565    0.39354   1.00
H1       0.85296    0.06614    0.42520   1.00
H1       0.85617    0.26386    0.43718   1.00
H1       0.97454    0.06447    0.40264   1.00
H1       0.97275    0.26553    0.39594   1.00
C6       1.02412    0.12266    0.39846   1.00
C6       1.01777    0.20734    0.37478   1.00
H2       1.04782    0.14142    0.41007   1.00
H2       1.02448    0.09763    0.41880   1.00
C6       1.03348    0.10776    0.35722   1.00
H2       1.03250    0.18858    0.35288   1.00
H2       1.00792    0.23237    0.35698   1.00
C6       1.04650    0.22224    0.40581   1.00
H2       1.03430    0.13226    0.33595   1.00
C6       1.07271    0.08668    0.35675   1.00
H2       1.01020    0.08740    0.34726   1.00
C6       1.08071    0.24332    0.38661   1.00
H2       1.03131    0.24260    0.42608   1.00
H2       1.05784    0.19774    0.42383   1.00
H2       1.09650    0.10678    0.36579   1.00
H2       1.07219    0.06120    0.37680   1.00
H2       1.07911    0.07602    0.32682   1.00
H2       1.09679    0.22322    0.36689   1.00
H2       1.07024    0.26880    0.36951   1.00
H2       1.10122    0.25398    0.40934   1.00
C4       0.91425    0.41480    0.14433   1.00
C4       0.91575    0.41520    0.18567   1.00
C3       0.91980    0.37989    0.12256   1.00
C3       0.92839    0.38219    0.20744   1.00
C4       0.90734    0.45000    0.12350   1.00
C4       0.90414    0.44914    0.20650   1.00
C2       0.91518    0.41440    0.06148   1.00
C2       0.91515    0.41439    0.26852   1.00
C3       0.92059    0.37996    0.08190   1.00
C3       0.92768    0.38186    0.24810   1.00
C3       0.90809    0.44896    0.08194   1.00
C3       0.90401    0.44787    0.24806   1.00
H1       0.92271    0.35171    0.13612   1.00
H1       0.93996    0.35633    0.19388   1.00
C5       0.89931    0.48511    0.14435   1.00
C5       0.89354    0.48357    0.18565   1.00
H1       0.92520    0.35296    0.06614   1.00
H1       0.93718    0.35617    0.26386   1.00
H1       0.90264    0.47454    0.06447   1.00
H1       0.89594    0.47275    0.26553   1.00
C6       0.89846    0.52412    0.12266   1.00
C6       0.87478    0.51777    0.20734   1.00
H2       0.91007    0.54782    0.14142   1.00
H2       0.91880    0.52448    0.09763   1.00
C6       0.85722    0.53348    0.10776   1.00
H2       0.85288    0.53250    0.18858   1.00
H2       0.85698    0.50792    0.23237   1.00
C6       0.90581    0.54650    0.22224   1.00
H2       0.83595    0.53430    0.13226   1.00
C6       0.85675    0.57271    0.08668   1.00
H2       0.84726    0.51020    0.08740   1.00
C6       0.88661    0.58071    0.24332   1.00
H2       0.92608    0.53131    0.24260   1.00
H2       0.92383    0.55784    0.19774   1.00
H2       0.86579    0.59650    0.10678   1.00
H2       0.87680    0.57219    0.06120   1.00
H2       0.82682    0.57911    0.07602   1.00
H2       0.86689    0.59679    0.22322   1.00
H2       0.86951    0.57024    0.26880   1.00
H2       0.90934    0.60122    0.25398   1.00
