data_IRMOF10_SG202_interpen_Ligand8cp_label_w.

_audit_creation_method             'generated by an auxiliary program of Tobunporous'

_symmetry_space_group_name_H-M     'P 1'
_symmetry_Int_Tables_number        1
_symmetry_cell_setting             triclinic

_cell_length_a                    34.2800
_cell_length_b                    34.2800
_cell_length_c                    34.2800
_cell_angle_alpha                 90.0000
_cell_angle_beta                  90.0000
_cell_angle_gamma                 90.0000

loop_
_atom_site_label
_atom_site_fract_x
_atom_site_fract_y
_atom_site_fract_z
_atom_site_occupancy
O1       0.75000    0.75000    0.75000   1.00
Zn1      0.71720    0.78280    0.78280   1.00
Zn1      0.78280    0.71720    0.78280   1.00
Zn1      0.78280    0.78280    0.71720   1.00
Zn1      0.71720    0.71720    0.71720   1.00
O2       0.72650    0.77350    0.83820   1.00
O2       0.72650    0.83820    0.77350   1.00
O2       0.66180    0.77350    0.77350   1.00
O2       0.77350    0.72650    0.83820   1.00
O2       0.83820    0.72650    0.77350   1.00
O2       0.77350    0.66180    0.77350   1.00
O2       0.77350    0.83820    0.72650   1.00
O2       0.83820    0.77350    0.72650   1.00
O2       0.77350    0.77350    0.66180   1.00
O2       0.66180    0.72650    0.72650   1.00
O2       0.72650    0.66180    0.72650   1.00
O2       0.72650    0.72650    0.66180   1.00
C1       0.75000    0.75000    0.85520   1.00
C1       0.75000    0.85520    0.75000   1.00
C1       0.64480    0.75000    0.75000   1.00
C1       0.85520    0.75000    0.75000   1.00
C1       0.75000    0.64480    0.75000   1.00
C1       0.75000    0.75000    0.64480   1.00
O1       0.25000    0.25000    0.75000   1.00
Zn1      0.21720    0.28280    0.78280   1.00
Zn1      0.28280    0.21720    0.78280   1.00
Zn1      0.28280    0.28280    0.71720   1.00
Zn1      0.21720    0.21720    0.71720   1.00
O2       0.22650    0.27350    0.83820   1.00
O2       0.22650    0.33820    0.77350   1.00
O2       0.16180    0.27350    0.77350   1.00
O2       0.27350    0.22650    0.83820   1.00
O2       0.33820    0.22650    0.77350   1.00
O2       0.27350    0.16180    0.77350   1.00
O2       0.27350    0.33820    0.72650   1.00
O2       0.33820    0.27350    0.72650   1.00
O2       0.27350    0.27350    0.66180   1.00
O2       0.16180    0.22650    0.72650   1.00
O2       0.22650    0.16180    0.72650   1.00
O2       0.22650    0.22650    0.66180   1.00
C1       0.25000    0.25000    0.85520   1.00
C1       0.25000    0.35520    0.75000   1.00
C1       0.14480    0.25000    0.75000   1.00
C1       0.35520    0.25000    0.75000   1.00
C1       0.25000    0.14480    0.75000   1.00
C1       0.25000    0.25000    0.64480   1.00
O1       0.25000    0.75000    0.25000   1.00
Zn1      0.21720    0.78280    0.28280   1.00
Zn1      0.28280    0.71720    0.28280   1.00
Zn1      0.28280    0.78280    0.21720   1.00
Zn1      0.21720    0.71720    0.21720   1.00
O2       0.22650    0.77350    0.33820   1.00
O2       0.22650    0.83820    0.27350   1.00
O2       0.16180    0.77350    0.27350   1.00
O2       0.27350    0.72650    0.33820   1.00
O2       0.33820    0.72650    0.27350   1.00
O2       0.27350    0.66180    0.27350   1.00
O2       0.27350    0.83820    0.22650   1.00
O2       0.33820    0.77350    0.22650   1.00
O2       0.27350    0.77350    0.16180   1.00
O2       0.16180    0.72650    0.22650   1.00
O2       0.22650    0.66180    0.22650   1.00
O2       0.22650    0.72650    0.16180   1.00
C1       0.25000    0.75000    0.35520   1.00
C1       0.25000    0.85520    0.25000   1.00
C1       0.14480    0.75000    0.25000   1.00
C1       0.35520    0.75000    0.25000   1.00
C1       0.25000    0.64480    0.25000   1.00
C1       0.25000    0.75000    0.14480   1.00
O1       0.75000    0.25000    0.25000   1.00
Zn1      0.71720    0.28280    0.28280   1.00
Zn1      0.78280    0.21720    0.28280   1.00
Zn1      0.78280    0.28280    0.21720   1.00
Zn1      0.71720    0.21720    0.21720   1.00
O2       0.72650    0.27350    0.33820   1.00
O2       0.72650    0.33820    0.27350   1.00
O2       0.66180    0.27350    0.27350   1.00
O2       0.77350    0.22650    0.33820   1.00
O2       0.83820    0.22650    0.27350   1.00
O2       0.77350    0.16180    0.27350   1.00
O2       0.77350    0.33820    0.22650   1.00
O2       0.83820    0.27350    0.22650   1.00
O2       0.77350    0.27350    0.16180   1.00
O2       0.66180    0.22650    0.22650   1.00
O2       0.72650    0.16180    0.22650   1.00
O2       0.72650    0.22650    0.16180   1.00
C1       0.75000    0.25000    0.35520   1.00
C1       0.75000    0.35520    0.25000   1.00
C1       0.64480    0.25000    0.25000   1.00
C1       0.85520    0.25000    0.25000   1.00
C1       0.75000    0.14480    0.25000   1.00
C1       0.75000    0.25000    0.14480   1.00
O1       0.25000    0.25000    0.25000   1.00
Zn1      0.28280    0.21720    0.21720   1.00
Zn1      0.21720    0.28280    0.21720   1.00
Zn1      0.21720    0.21720    0.28280   1.00
Zn1      0.28280    0.28280    0.28280   1.00
O2       0.27350    0.22650    0.16180   1.00
O2       0.27350    0.16180    0.22650   1.00
O2       0.33820    0.22650    0.22650   1.00
O2       0.22650    0.27350    0.16180   1.00
O2       0.16180    0.27350    0.22650   1.00
O2       0.22650    0.33820    0.22650   1.00
O2       0.22650    0.16180    0.27350   1.00
O2       0.16180    0.22650    0.27350   1.00
O2       0.22650    0.22650    0.33820   1.00
O2       0.33820    0.27350    0.27350   1.00
O2       0.27350    0.33820    0.27350   1.00
O2       0.27350    0.27350    0.33820   1.00
C1       0.25000    0.25000    0.14480   1.00
C1       0.25000    0.14480    0.25000   1.00
C1       0.35520    0.25000    0.25000   1.00
C1       0.14480    0.25000    0.25000   1.00
C1       0.25000    0.35520    0.25000   1.00
C1       0.25000    0.25000    0.35520   1.00
O1       0.75000    0.75000    0.25000   1.00
Zn1      0.78280    0.71720    0.21720   1.00
Zn1      0.71720    0.78280    0.21720   1.00
Zn1      0.71720    0.71720    0.28280   1.00
Zn1      0.78280    0.78280    0.28280   1.00
O2       0.77350    0.72650    0.16180   1.00
O2       0.77350    0.66180    0.22650   1.00
O2       0.83820    0.72650    0.22650   1.00
O2       0.72650    0.77350    0.16180   1.00
O2       0.66180    0.77350    0.22650   1.00
O2       0.72650    0.83820    0.22650   1.00
O2       0.72650    0.66180    0.27350   1.00
O2       0.66180    0.72650    0.27350   1.00
O2       0.72650    0.72650    0.33820   1.00
O2       0.83820    0.77350    0.27350   1.00
O2       0.77350    0.83820    0.27350   1.00
O2       0.77350    0.77350    0.33820   1.00
C1       0.75000    0.75000    0.14480   1.00
C1       0.75000    0.64480    0.25000   1.00
C1       0.85520    0.75000    0.25000   1.00
C1       0.64480    0.75000    0.25000   1.00
C1       0.75000    0.85520    0.25000   1.00
C1       0.75000    0.75000    0.35520   1.00
O1       0.75000    0.25000    0.75000   1.00
Zn1      0.78280    0.21720    0.71720   1.00
Zn1      0.71720    0.28280    0.71720   1.00
Zn1      0.71720    0.21720    0.78280   1.00
Zn1      0.78280    0.28280    0.78280   1.00
O2       0.77350    0.22650    0.66180   1.00
O2       0.77350    0.16180    0.72650   1.00
O2       0.83820    0.22650    0.72650   1.00
O2       0.72650    0.27350    0.66180   1.00
O2       0.66180    0.27350    0.72650   1.00
O2       0.72650    0.33820    0.72650   1.00
O2       0.72650    0.16180    0.77350   1.00
O2       0.66180    0.22650    0.77350   1.00
O2       0.72650    0.22650    0.83820   1.00
O2       0.83820    0.27350    0.77350   1.00
O2       0.77350    0.33820    0.77350   1.00
O2       0.77350    0.27350    0.83820   1.00
C1       0.75000    0.25000    0.64480   1.00
C1       0.75000    0.14480    0.75000   1.00
C1       0.85520    0.25000    0.75000   1.00
C1       0.64480    0.25000    0.75000   1.00
C1       0.75000    0.35520    0.75000   1.00
C1       0.75000    0.25000    0.85520   1.00
O1       0.25000    0.75000    0.75000   1.00
Zn1      0.28280    0.71720    0.71720   1.00
Zn1      0.21720    0.78280    0.71720   1.00
Zn1      0.21720    0.71720    0.78280   1.00
Zn1      0.28280    0.78280    0.78280   1.00
O2       0.27350    0.72650    0.66180   1.00
O2       0.27350    0.66180    0.72650   1.00
O2       0.33820    0.72650    0.72650   1.00
O2       0.22650    0.77350    0.66180   1.00
O2       0.16180    0.77350    0.72650   1.00
O2       0.22650    0.83820    0.72650   1.00
O2       0.22650    0.66180    0.77350   1.00
O2       0.16180    0.72650    0.77350   1.00
O2       0.22650    0.72650    0.83820   1.00
O2       0.33820    0.77350    0.77350   1.00
O2       0.27350    0.83820    0.77350   1.00
O2       0.27350    0.77350    0.83820   1.00
C1       0.25000    0.75000    0.64480   1.00
C1       0.25000    0.64480    0.75000   1.00
C1       0.35520    0.75000    0.75000   1.00
C1       0.14480    0.75000    0.75000   1.00
C1       0.25000    0.85520    0.75000   1.00
C1       0.25000    0.75000    0.85520   1.00
O1       0.91500    0.91500    0.91500   1.00
Zn1      0.88220    0.94780    0.94780   1.00
Zn1      0.94780    0.88220    0.94780   1.00
Zn1      0.94780    0.94780    0.88220   1.00
Zn1      0.88220    0.88220    0.88220   1.00
O2       0.89150    0.93850    1.00320   1.00
O2       0.89150    1.00320    0.93850   1.00
O2       0.82680    0.93850    0.93850   1.00
O2       0.93850    0.89150    1.00320   1.00
O2       1.00320    0.89150    0.93850   1.00
O2       0.93850    0.82680    0.93850   1.00
O2       0.93850    1.00320    0.89150   1.00
O2       1.00320    0.93850    0.89150   1.00
O2       0.93850    0.93850    0.82680   1.00
O2       0.82680    0.89150    0.89150   1.00
O2       0.89150    0.82680    0.89150   1.00
O2       0.89150    0.89150    0.82680   1.00
C1       0.91500    0.91500    1.02020   1.00
C1       0.91500    1.02020    0.91500   1.00
C1       0.80980    0.91500    0.91500   1.00
C1       1.02020    0.91500    0.91500   1.00
C1       0.91500    0.80980    0.91500   1.00
C1       0.91500    0.91500    0.80980   1.00
O1       0.41500    0.41500    0.91500   1.00
Zn1      0.38220    0.44780    0.94780   1.00
Zn1      0.44780    0.38220    0.94780   1.00
Zn1      0.44780    0.44780    0.88220   1.00
Zn1      0.38220    0.38220    0.88220   1.00
O2       0.39150    0.43850    1.00320   1.00
O2       0.39150    0.50320    0.93850   1.00
O2       0.32680    0.43850    0.93850   1.00
O2       0.43850    0.39150    1.00320   1.00
O2       0.50320    0.39150    0.93850   1.00
O2       0.43850    0.32680    0.93850   1.00
O2       0.43850    0.50320    0.89150   1.00
O2       0.50320    0.43850    0.89150   1.00
O2       0.43850    0.43850    0.82680   1.00
O2       0.32680    0.39150    0.89150   1.00
O2       0.39150    0.32680    0.89150   1.00
O2       0.39150    0.39150    0.82680   1.00
C1       0.41500    0.41500    1.02020   1.00
C1       0.41500    0.52020    0.91500   1.00
C1       0.30980    0.41500    0.91500   1.00
C1       0.52020    0.41500    0.91500   1.00
C1       0.41500    0.30980    0.91500   1.00
C1       0.41500    0.41500    0.80980   1.00
O1       0.41500    0.91500    0.41500   1.00
Zn1      0.38220    0.94780    0.44780   1.00
Zn1      0.44780    0.88220    0.44780   1.00
Zn1      0.44780    0.94780    0.38220   1.00
Zn1      0.38220    0.88220    0.38220   1.00
O2       0.39150    0.93850    0.50320   1.00
O2       0.39150    1.00320    0.43850   1.00
O2       0.32680    0.93850    0.43850   1.00
O2       0.43850    0.89150    0.50320   1.00
O2       0.50320    0.89150    0.43850   1.00
O2       0.43850    0.82680    0.43850   1.00
O2       0.43850    1.00320    0.39150   1.00
O2       0.50320    0.93850    0.39150   1.00
O2       0.43850    0.93850    0.32680   1.00
O2       0.32680    0.89150    0.39150   1.00
O2       0.39150    0.82680    0.39150   1.00
O2       0.39150    0.89150    0.32680   1.00
C1       0.41500    0.91500    0.52020   1.00
C1       0.41500    1.02020    0.41500   1.00
C1       0.30980    0.91500    0.41500   1.00
C1       0.52020    0.91500    0.41500   1.00
C1       0.41500    0.80980    0.41500   1.00
C1       0.41500    0.91500    0.30980   1.00
O1       0.91500    0.41500    0.41500   1.00
Zn1      0.88220    0.44780    0.44780   1.00
Zn1      0.94780    0.38220    0.44780   1.00
Zn1      0.94780    0.44780    0.38220   1.00
Zn1      0.88220    0.38220    0.38220   1.00
O2       0.89150    0.43850    0.50320   1.00
O2       0.89150    0.50320    0.43850   1.00
O2       0.82680    0.43850    0.43850   1.00
O2       0.93850    0.39150    0.50320   1.00
O2       1.00320    0.39150    0.43850   1.00
O2       0.93850    0.32680    0.43850   1.00
O2       0.93850    0.50320    0.39150   1.00
O2       1.00320    0.43850    0.39150   1.00
O2       0.93850    0.43850    0.32680   1.00
O2       0.82680    0.39150    0.39150   1.00
O2       0.89150    0.32680    0.39150   1.00
O2       0.89150    0.39150    0.32680   1.00
C1       0.91500    0.41500    0.52020   1.00
C1       0.91500    0.52020    0.41500   1.00
C1       0.80980    0.41500    0.41500   1.00
C1       1.02020    0.41500    0.41500   1.00
C1       0.91500    0.30980    0.41500   1.00
C1       0.91500    0.41500    0.30980   1.00
O1       0.41500    0.41500    0.41500   1.00
Zn1      0.44780    0.38220    0.38220   1.00
Zn1      0.38220    0.44780    0.38220   1.00
Zn1      0.38220    0.38220    0.44780   1.00
Zn1      0.44780    0.44780    0.44780   1.00
O2       0.43850    0.39150    0.32680   1.00
O2       0.43850    0.32680    0.39150   1.00
O2       0.50320    0.39150    0.39150   1.00
O2       0.39150    0.43850    0.32680   1.00
O2       0.32680    0.43850    0.39150   1.00
O2       0.39150    0.50320    0.39150   1.00
O2       0.39150    0.32680    0.43850   1.00
O2       0.32680    0.39150    0.43850   1.00
O2       0.39150    0.39150    0.50320   1.00
O2       0.50320    0.43850    0.43850   1.00
O2       0.43850    0.50320    0.43850   1.00
O2       0.43850    0.43850    0.50320   1.00
C1       0.41500    0.41500    0.30980   1.00
C1       0.41500    0.30980    0.41500   1.00
C1       0.52020    0.41500    0.41500   1.00
C1       0.30980    0.41500    0.41500   1.00
C1       0.41500    0.52020    0.41500   1.00
C1       0.41500    0.41500    0.52020   1.00
O1       0.91500    0.91500    0.41500   1.00
Zn1      0.94780    0.88220    0.38220   1.00
Zn1      0.88220    0.94780    0.38220   1.00
Zn1      0.88220    0.88220    0.44780   1.00
Zn1      0.94780    0.94780    0.44780   1.00
O2       0.93850    0.89150    0.32680   1.00
O2       0.93850    0.82680    0.39150   1.00
O2       1.00320    0.89150    0.39150   1.00
O2       0.89150    0.93850    0.32680   1.00
O2       0.82680    0.93850    0.39150   1.00
O2       0.89150    1.00320    0.39150   1.00
O2       0.89150    0.82680    0.43850   1.00
O2       0.82680    0.89150    0.43850   1.00
O2       0.89150    0.89150    0.50320   1.00
O2       1.00320    0.93850    0.43850   1.00
O2       0.93850    1.00320    0.43850   1.00
O2       0.93850    0.93850    0.50320   1.00
C1       0.91500    0.91500    0.30980   1.00
C1       0.91500    0.80980    0.41500   1.00
C1       1.02020    0.91500    0.41500   1.00
C1       0.80980    0.91500    0.41500   1.00
C1       0.91500    1.02020    0.41500   1.00
C1       0.91500    0.91500    0.52020   1.00
O1       0.91500    0.41500    0.91500   1.00
Zn1      0.94780    0.38220    0.88220   1.00
Zn1      0.88220    0.44780    0.88220   1.00
Zn1      0.88220    0.38220    0.94780   1.00
Zn1      0.94780    0.44780    0.94780   1.00
O2       0.93850    0.39150    0.82680   1.00
O2       0.93850    0.32680    0.89150   1.00
O2       1.00320    0.39150    0.89150   1.00
O2       0.89150    0.43850    0.82680   1.00
O2       0.82680    0.43850    0.89150   1.00
O2       0.89150    0.50320    0.89150   1.00
O2       0.89150    0.32680    0.93850   1.00
O2       0.82680    0.39150    0.93850   1.00
O2       0.89150    0.39150    1.00320   1.00
O2       1.00320    0.43850    0.93850   1.00
O2       0.93850    0.50320    0.93850   1.00
O2       0.93850    0.43850    1.00320   1.00
C1       0.91500    0.41500    0.80980   1.00
C1       0.91500    0.30980    0.91500   1.00
C1       1.02020    0.41500    0.91500   1.00
C1       0.80980    0.41500    0.91500   1.00
C1       0.91500    0.52020    0.91500   1.00
C1       0.91500    0.41500    1.02020   1.00
O1       0.41500    0.91500    0.91500   1.00
Zn1      0.44780    0.88220    0.88220   1.00
Zn1      0.38220    0.94780    0.88220   1.00
Zn1      0.38220    0.88220    0.94780   1.00
Zn1      0.44780    0.94780    0.94780   1.00
O2       0.43850    0.89150    0.82680   1.00
O2       0.43850    0.82680    0.89150   1.00
O2       0.50320    0.89150    0.89150   1.00
O2       0.39150    0.93850    0.82680   1.00
O2       0.32680    0.93850    0.89150   1.00
O2       0.39150    1.00320    0.89150   1.00
O2       0.39150    0.82680    0.93850   1.00
O2       0.32680    0.89150    0.93850   1.00
O2       0.39150    0.89150    1.00320   1.00
O2       0.50320    0.93850    0.93850   1.00
O2       0.43850    1.00320    0.93850   1.00
O2       0.43850    0.93850    1.00320   1.00
C1       0.41500    0.91500    0.80980   1.00
C1       0.41500    0.80980    0.91500   1.00
C1       0.52020    0.91500    0.91500   1.00
C1       0.30980    0.91500    0.91500   1.00
C1       0.41500    1.02020    0.91500   1.00
C1       0.41500    0.91500    1.02020   1.00
C4       0.74991    0.75003    0.97915   1.00
C4       0.75009    0.74997    1.02085   1.00
C3       0.72011    0.73207    0.95708   1.00
C3       0.73863    0.78326    1.04225   1.00
C3       0.78020    0.76850    0.95816   1.00
C3a      0.76131    0.71624    1.04263   1.00
C2       0.75143    0.75048    0.89483   1.00
C2       0.74854    0.74983    1.10517   1.00
C3       0.72093    0.73231    0.91566   1.00
C3       0.73788    0.78312    1.08359   1.00
C3       0.78102    0.76856    0.91680   1.00
C3       0.76024    0.71667    1.08415   1.00
H1       0.69616    0.71778    0.97192   1.00
H1       0.72993    0.80945    1.02685   1.00
H1       0.69764    0.71819    0.89968   1.00
H1       0.72881    0.80920    1.09895   1.00
H1       0.80503    0.78256    0.90179   1.00
H1       0.76892    0.69103    1.10043   1.00
C5       0.77538    0.67957    1.02239   1.00
H1       0.80392    0.78207    0.97401   1.00
H2       0.77902    0.65526    1.04354   1.00
H2       0.75300    0.66987    1.00103   1.00
N1       0.81276    0.68645    1.00292   1.00
C6       0.84612    0.69808    1.02012   1.00
C6       0.82016    0.68195    0.96460   1.00
C6       0.87512    0.70140    0.99243   1.00
C6       0.85860    0.69116    0.95711   1.00
H3       0.84924    0.70407    1.05099   1.00
H3       0.79882    0.67297    0.94309   1.00
H3       0.90498    0.71027    0.99741   1.00
H3       0.87295    0.69051    0.92903   1.00
C4       0.75003    0.97915    0.74991   1.00
C4       0.74997    1.02085    0.75009   1.00
C3       0.73207    0.95708    0.72011   1.00
C3       0.78326    1.04225    0.73863   1.00
C3       0.76850    0.95816    0.78020   1.00
C3a      0.71624    1.04263    0.76131   1.00
C2       0.75048    0.89483    0.75143   1.00
C2       0.74983    1.10517    0.74854   1.00
C3       0.73231    0.91566    0.72093   1.00
C3       0.78312    1.08359    0.73788   1.00
C3       0.76856    0.91680    0.78102   1.00
C3       0.71667    1.08415    0.76024   1.00
H1       0.71778    0.97192    0.69616   1.00
H1       0.80945    1.02685    0.72993   1.00
H1       0.71819    0.89968    0.69764   1.00
H1       0.80920    1.09895    0.72881   1.00
H1       0.78256    0.90179    0.80503   1.00
H1       0.69103    1.10043    0.76892   1.00
C5       0.67957    1.02239    0.77538   1.00
H1       0.78207    0.97401    0.80392   1.00
H2       0.65526    1.04354    0.77902   1.00
H2       0.66987    1.00103    0.75300   1.00
N1       0.68645    1.00292    0.81276   1.00
C6       0.69808    1.02012    0.84612   1.00
C6       0.68195    0.96460    0.82016   1.00
C6       0.70140    0.99243    0.87512   1.00
C6       0.69116    0.95711    0.85860   1.00
H3       0.70407    1.05099    0.84924   1.00
H3       0.67297    0.94309    0.79882   1.00
H3       0.71027    0.99741    0.90498   1.00
H3       0.69051    0.92903    0.87295   1.00
C4       0.52085    0.74991    0.74997   1.00
C4       0.47915    0.75009    0.75003   1.00
C3       0.54292    0.72011    0.76793   1.00
C3       0.45775    0.73863    0.71674   1.00
C3       0.54184    0.78020    0.73150   1.00
C3a      0.45737    0.76131    0.78376   1.00
C2       0.60517    0.75143    0.74952   1.00
C2       0.39483    0.74854    0.75017   1.00
C3       0.58434    0.72093    0.76769   1.00
C3       0.41641    0.73788    0.71688   1.00
C3       0.58320    0.78102    0.73144   1.00
C3       0.41585    0.76024    0.78333   1.00
H1       0.52808    0.69616    0.78222   1.00
H1       0.47315    0.72993    0.69055   1.00
H1       0.60032    0.69764    0.78181   1.00
H1       0.40105    0.72881    0.69080   1.00
H1       0.59821    0.80503    0.71744   1.00
H1       0.39957    0.76892    0.80897   1.00
C5       0.47761    0.77538    0.82043   1.00
H1       0.52599    0.80392    0.71793   1.00
H2       0.45646    0.77902    0.84474   1.00
H2       0.49897    0.75300    0.83013   1.00
N1       0.49708    0.81276    0.81355   1.00
C6       0.47988    0.84612    0.80192   1.00
C6       0.53540    0.82016    0.81805   1.00
C6       0.50757    0.87512    0.79860   1.00
C6       0.54289    0.85860    0.80884   1.00
H3       0.44901    0.84924    0.79593   1.00
H3       0.55691    0.79882    0.82703   1.00
H3       0.50259    0.90498    0.78973   1.00
H3       0.57097    0.87295    0.80949   1.00
C4       0.97915    0.74991    0.75003   1.00
C4       1.02085    0.75009    0.74997   1.00
C3       0.95708    0.72011    0.73207   1.00
C3       1.04225    0.73863    0.78326   1.00
C3       0.95816    0.78020    0.76850   1.00
C3a      1.04263    0.76131    0.71624   1.00
C2       0.89483    0.75143    0.75048   1.00
C2       1.10517    0.74854    0.74983   1.00
C3       0.91566    0.72093    0.73231   1.00
C3       1.08359    0.73788    0.78312   1.00
C3       0.91680    0.78102    0.76856   1.00
C3       1.08415    0.76024    0.71667   1.00
H1       0.97192    0.69616    0.71778   1.00
H1       1.02685    0.72993    0.80945   1.00
H1       0.89968    0.69764    0.71819   1.00
H1       1.09895    0.72881    0.80920   1.00
H1       0.90179    0.80503    0.78256   1.00
H1       1.10043    0.76892    0.69103   1.00
C5       1.02239    0.77538    0.67957   1.00
H1       0.97401    0.80392    0.78207   1.00
H2       1.04354    0.77902    0.65526   1.00
H2       1.00103    0.75300    0.66987   1.00
N1       1.00292    0.81276    0.68645   1.00
C6       1.02012    0.84612    0.69808   1.00
C6       0.96460    0.82016    0.68195   1.00
C6       0.99243    0.87512    0.70140   1.00
C6       0.95711    0.85860    0.69116   1.00
H3       1.05099    0.84924    0.70407   1.00
H3       0.94309    0.79882    0.67297   1.00
H3       0.99741    0.90498    0.71027   1.00
H3       0.92903    0.87295    0.69051   1.00
C4       0.74997    0.52085    0.74991   1.00
C4       0.75003    0.47915    0.75009   1.00
C3       0.76793    0.54292    0.72011   1.00
C3       0.71674    0.45775    0.73863   1.00
C3       0.73150    0.54184    0.78020   1.00
C3a      0.78376    0.45737    0.76131   1.00
C2       0.74952    0.60517    0.75143   1.00
C2       0.75017    0.39483    0.74854   1.00
C3       0.76769    0.58434    0.72093   1.00
C3       0.71688    0.41641    0.73788   1.00
C3       0.73144    0.58320    0.78102   1.00
C3       0.78333    0.41585    0.76024   1.00
H1       0.78222    0.52808    0.69616   1.00
H1       0.69055    0.47315    0.72993   1.00
H1       0.78181    0.60032    0.69764   1.00
H1       0.69080    0.40105    0.72881   1.00
H1       0.71744    0.59821    0.80503   1.00
H1       0.80897    0.39957    0.76892   1.00
C5       0.82043    0.47761    0.77538   1.00
H1       0.71793    0.52599    0.80392   1.00
H2       0.84474    0.45646    0.77902   1.00
H2       0.83013    0.49897    0.75300   1.00
N1       0.81355    0.49708    0.81276   1.00
C6       0.80192    0.47988    0.84612   1.00
C6       0.81805    0.53540    0.82016   1.00
C6       0.79860    0.50757    0.87512   1.00
C6       0.80884    0.54289    0.85860   1.00
H3       0.79593    0.44901    0.84924   1.00
H3       0.82703    0.55691    0.79882   1.00
H3       0.78973    0.50259    0.90498   1.00
H3       0.80949    0.57097    0.87295   1.00
C4       0.74991    0.74997    0.52085   1.00
C4       0.75009    0.75003    0.47915   1.00
C3       0.72011    0.76793    0.54292   1.00
C3       0.73863    0.71674    0.45775   1.00
C3       0.78020    0.73150    0.54184   1.00
C3a      0.76131    0.78376    0.45737   1.00
C2       0.75143    0.74952    0.60517   1.00
C2       0.74854    0.75017    0.39483   1.00
C3       0.72093    0.76769    0.58434   1.00
C3       0.73788    0.71688    0.41641   1.00
C3       0.78102    0.73144    0.58320   1.00
C3       0.76024    0.78333    0.41585   1.00
H1       0.69616    0.78222    0.52808   1.00
H1       0.72993    0.69055    0.47315   1.00
H1       0.69764    0.78181    0.60032   1.00
H1       0.72881    0.69080    0.40105   1.00
H1       0.80503    0.71744    0.59821   1.00
H1       0.76892    0.80897    0.39957   1.00
C5       0.77538    0.82043    0.47761   1.00
H1       0.80392    0.71793    0.52599   1.00
H2       0.77902    0.84474    0.45646   1.00
H2       0.75300    0.83013    0.49897   1.00
N1       0.81276    0.81355    0.49708   1.00
C6       0.84612    0.80192    0.47988   1.00
C6       0.82016    0.81805    0.53540   1.00
C6       0.87512    0.79860    0.50757   1.00
C6       0.85860    0.80884    0.54289   1.00
H3       0.84924    0.79593    0.44901   1.00
H3       0.79882    0.82703    0.55691   1.00
H3       0.90498    0.78973    0.50259   1.00
H3       0.87295    0.80949    0.57097   1.00
C4       0.24991    0.25003    0.97915   1.00
C4       0.25009    0.24997    1.02085   1.00
C3       0.22011    0.23207    0.95708   1.00
C3       0.23863    0.28326    1.04225   1.00
C3       0.28020    0.26850    0.95816   1.00
C3a      0.26131    0.21624    1.04263   1.00
C2       0.25143    0.25048    0.89483   1.00
C2       0.24854    0.24983    1.10517   1.00
C3       0.22093    0.23231    0.91566   1.00
C3       0.23788    0.28312    1.08359   1.00
C3       0.28102    0.26856    0.91680   1.00
C3       0.26024    0.21667    1.08415   1.00
H1       0.19616    0.21778    0.97192   1.00
H1       0.22993    0.30945    1.02685   1.00
H1       0.19764    0.21819    0.89968   1.00
H1       0.22881    0.30920    1.09895   1.00
H1       0.30503    0.28256    0.90179   1.00
H1       0.26892    0.19103    1.10043   1.00
C5       0.27538    0.17957    1.02239   1.00
H1       0.30392    0.28207    0.97401   1.00
H2       0.27902    0.15526    1.04354   1.00
H2       0.25300    0.16987    1.00103   1.00
N1       0.31276    0.18645    1.00292   1.00
C6       0.34612    0.19808    1.02012   1.00
C6       0.32016    0.18195    0.96460   1.00
C6       0.37512    0.20140    0.99243   1.00
C6       0.35860    0.19116    0.95711   1.00
H3       0.34924    0.20407    1.05099   1.00
H3       0.29882    0.17297    0.94309   1.00
H3       0.40498    0.21027    0.99741   1.00
H3       0.37295    0.19051    0.92903   1.00
C4       0.25003    0.47915    0.74991   1.00
C4       0.24997    0.52085    0.75009   1.00
C3       0.23207    0.45708    0.72011   1.00
C3       0.28326    0.54225    0.73863   1.00
C3       0.26850    0.45816    0.78020   1.00
C3a      0.21624    0.54263    0.76131   1.00
C2       0.25048    0.39483    0.75143   1.00
C2       0.24983    0.60517    0.74854   1.00
C3       0.23231    0.41566    0.72093   1.00
C3       0.28312    0.58359    0.73788   1.00
C3       0.26856    0.41680    0.78102   1.00
C3       0.21667    0.58415    0.76024   1.00
H1       0.21778    0.47192    0.69616   1.00
H1       0.30945    0.52685    0.72993   1.00
H1       0.21819    0.39968    0.69764   1.00
H1       0.30920    0.59895    0.72881   1.00
H1       0.28256    0.40179    0.80503   1.00
H1       0.19103    0.60043    0.76892   1.00
C5       0.17957    0.52239    0.77538   1.00
H1       0.28207    0.47401    0.80392   1.00
H2       0.15526    0.54354    0.77902   1.00
H2       0.16987    0.50103    0.75300   1.00
N1       0.18645    0.50292    0.81276   1.00
C6       0.19808    0.52012    0.84612   1.00
C6       0.18195    0.46460    0.82016   1.00
C6       0.20140    0.49243    0.87512   1.00
C6       0.19116    0.45711    0.85860   1.00
H3       0.20407    0.55099    0.84924   1.00
H3       0.17297    0.44309    0.79882   1.00
H3       0.21027    0.49741    0.90498   1.00
H3       0.19051    0.42903    0.87295   1.00
C4       0.02085    0.24991    0.74997   1.00
C4       -0.02085   0.25009    0.75003   1.00
C3       0.04292    0.22011    0.76793   1.00
C3       -0.04225   0.23863    0.71674   1.00
C3       0.04184    0.28020    0.73150   1.00
C3a      -0.04263   0.26131    0.78376   1.00
C2       0.10517    0.25143    0.74952   1.00
C2       -0.10517   0.24854    0.75017   1.00
C3       0.08434    0.22093    0.76769   1.00
C3       -0.08359   0.23788    0.71688   1.00
C3       0.08320    0.28102    0.73144   1.00
C3       -0.08415   0.26024    0.78333   1.00
H1       0.02808    0.19616    0.78222   1.00
H1       -0.02685   0.22993    0.69055   1.00
H1       0.10032    0.19764    0.78181   1.00
H1       -0.09895   0.22881    0.69080   1.00
H1       0.09821    0.30503    0.71744   1.00
H1       -0.10043   0.26892    0.80897   1.00
C5       -0.02239   0.27538    0.82043   1.00
H1       0.02599    0.30392    0.71793   1.00
H2       -0.04354   0.27902    0.84474   1.00
H2       -0.00103   0.25300    0.83013   1.00
N1       -0.00292   0.31276    0.81355   1.00
C6       -0.02012   0.34612    0.80192   1.00
C6       0.03540    0.32016    0.81805   1.00
C6       0.00757    0.37512    0.79860   1.00
C6       0.04289    0.35860    0.80884   1.00
H3       -0.05099   0.34924    0.79593   1.00
H3       0.05691    0.29882    0.82703   1.00
H3       0.00259    0.40498    0.78973   1.00
H3       0.07097    0.37295    0.80949   1.00
C4       0.47915    0.24991    0.75003   1.00
C4       0.52085    0.25009    0.74997   1.00
C3       0.45708    0.22011    0.73207   1.00
C3       0.54225    0.23863    0.78326   1.00
C3       0.45816    0.28020    0.76850   1.00
C3a      0.54263    0.26131    0.71624   1.00
C2       0.39483    0.25143    0.75048   1.00
C2       0.60517    0.24854    0.74983   1.00
C3       0.41566    0.22093    0.73231   1.00
C3       0.58359    0.23788    0.78312   1.00
C3       0.41680    0.28102    0.76856   1.00
C3       0.58415    0.26024    0.71667   1.00
H1       0.47192    0.19616    0.71778   1.00
H1       0.52685    0.22993    0.80945   1.00
H1       0.39968    0.19764    0.71819   1.00
H1       0.59895    0.22881    0.80920   1.00
H1       0.40179    0.30503    0.78256   1.00
H1       0.60043    0.26892    0.69103   1.00
C5       0.52239    0.27538    0.67957   1.00
H1       0.47401    0.30392    0.78207   1.00
H2       0.54354    0.27902    0.65526   1.00
H2       0.50103    0.25300    0.66987   1.00
N1       0.50292    0.31276    0.68645   1.00
C6       0.52012    0.34612    0.69808   1.00
C6       0.46460    0.32016    0.68195   1.00
C6       0.49243    0.37512    0.70140   1.00
C6       0.45711    0.35860    0.69116   1.00
H3       0.55099    0.34924    0.70407   1.00
H3       0.44309    0.29882    0.67297   1.00
H3       0.49741    0.40498    0.71027   1.00
H3       0.42903    0.37295    0.69051   1.00
C4       0.24997    0.02085    0.74991   1.00
C4       0.25003    -0.02085   0.75009   1.00
C3       0.26793    0.04292    0.72011   1.00
C3       0.21674    -0.04225   0.73863   1.00
C3       0.23150    0.04184    0.78020   1.00
C3a      0.28376    -0.04263   0.76131   1.00
C2       0.24952    0.10517    0.75143   1.00
C2       0.25017    -0.10517   0.74854   1.00
C3       0.26769    0.08434    0.72093   1.00
C3       0.21688    -0.08359   0.73788   1.00
C3       0.23144    0.08320    0.78102   1.00
C3       0.28333    -0.08415   0.76024   1.00
H1       0.28222    0.02808    0.69616   1.00
H1       0.19055    -0.02685   0.72993   1.00
H1       0.28181    0.10032    0.69764   1.00
H1       0.19080    -0.09895   0.72881   1.00
H1       0.21744    0.09821    0.80503   1.00
H1       0.30897    -0.10043   0.76892   1.00
C5       0.32043    -0.02239   0.77538   1.00
H1       0.21793    0.02599    0.80392   1.00
H2       0.34474    -0.04354   0.77902   1.00
H2       0.33013    -0.00103   0.75300   1.00
N1       0.31355    -0.00292   0.81276   1.00
C6       0.30192    -0.02012   0.84612   1.00
C6       0.31805    0.03540    0.82016   1.00
C6       0.29860    0.00757    0.87512   1.00
C6       0.30884    0.04289    0.85860   1.00
H3       0.29593    -0.05099   0.84924   1.00
H3       0.32703    0.05691    0.79882   1.00
H3       0.28973    0.00259    0.90498   1.00
H3       0.30949    0.07097    0.87295   1.00
C4       0.24991    0.24997    0.52085   1.00
C4       0.25009    0.25003    0.47915   1.00
C3       0.22011    0.26793    0.54292   1.00
C3       0.23863    0.21674    0.45775   1.00
C3       0.28020    0.23150    0.54184   1.00
C3a      0.26131    0.28376    0.45737   1.00
C2       0.25143    0.24952    0.60517   1.00
C2       0.24854    0.25017    0.39483   1.00
C3       0.22093    0.26769    0.58434   1.00
C3       0.23788    0.21688    0.41641   1.00
C3       0.28102    0.23144    0.58320   1.00
C3       0.26024    0.28333    0.41585   1.00
H1       0.19616    0.28222    0.52808   1.00
H1       0.22993    0.19055    0.47315   1.00
H1       0.19764    0.28181    0.60032   1.00
H1       0.22881    0.19080    0.40105   1.00
H1       0.30503    0.21744    0.59821   1.00
H1       0.26892    0.30897    0.39957   1.00
C5       0.27538    0.32043    0.47761   1.00
H1       0.30392    0.21793    0.52599   1.00
H2       0.27902    0.34474    0.45646   1.00
H2       0.25300    0.33013    0.49897   1.00
N1       0.31276    0.31355    0.49708   1.00
C6       0.34612    0.30192    0.47988   1.00
C6       0.32016    0.31805    0.53540   1.00
C6       0.37512    0.29860    0.50757   1.00
C6       0.35860    0.30884    0.54289   1.00
H3       0.34924    0.29593    0.44901   1.00
H3       0.29882    0.32703    0.55691   1.00
H3       0.40498    0.28973    0.50259   1.00
H3       0.37295    0.30949    0.57097   1.00
C4       0.24991    0.75003    0.47915   1.00
C4       0.25009    0.74997    0.52085   1.00
C3       0.22011    0.73207    0.45708   1.00
C3       0.23863    0.78326    0.54225   1.00
C3       0.28020    0.76850    0.45816   1.00
C3a      0.26131    0.71624    0.54263   1.00
C2       0.25143    0.75048    0.39483   1.00
C2       0.24854    0.74983    0.60517   1.00
C3       0.22093    0.73231    0.41566   1.00
C3       0.23788    0.78312    0.58359   1.00
C3       0.28102    0.76856    0.41680   1.00
C3       0.26024    0.71667    0.58415   1.00
H1       0.19616    0.71778    0.47192   1.00
H1       0.22993    0.80945    0.52685   1.00
H1       0.19764    0.71819    0.39968   1.00
H1       0.22881    0.80920    0.59895   1.00
H1       0.30503    0.78256    0.40179   1.00
H1       0.26892    0.69103    0.60043   1.00
C5       0.27538    0.67957    0.52239   1.00
H1       0.30392    0.78207    0.47401   1.00
H2       0.27902    0.65526    0.54354   1.00
H2       0.25300    0.66987    0.50103   1.00
N1       0.31276    0.68645    0.50292   1.00
C6       0.34612    0.69808    0.52012   1.00
C6       0.32016    0.68195    0.46460   1.00
C6       0.37512    0.70140    0.49243   1.00
C6       0.35860    0.69116    0.45711   1.00
H3       0.34924    0.70407    0.55099   1.00
H3       0.29882    0.67297    0.44309   1.00
H3       0.40498    0.71027    0.49741   1.00
H3       0.37295    0.69051    0.42903   1.00
C4       0.25003    0.97915    0.24991   1.00
C4       0.24997    1.02085    0.25009   1.00
C3       0.23207    0.95708    0.22011   1.00
C3       0.28326    1.04225    0.23863   1.00
C3       0.26850    0.95816    0.28020   1.00
C3a      0.21624    1.04263    0.26131   1.00
C2       0.25048    0.89483    0.25143   1.00
C2       0.24983    1.10517    0.24854   1.00
C3       0.23231    0.91566    0.22093   1.00
C3       0.28312    1.08359    0.23788   1.00
C3       0.26856    0.91680    0.28102   1.00
C3       0.21667    1.08415    0.26024   1.00
H1       0.21778    0.97192    0.19616   1.00
H1       0.30945    1.02685    0.22993   1.00
H1       0.21819    0.89968    0.19764   1.00
H1       0.30920    1.09895    0.22881   1.00
H1       0.28256    0.90179    0.30503   1.00
H1       0.19103    1.10043    0.26892   1.00
C5       0.17957    1.02239    0.27538   1.00
H1       0.28207    0.97401    0.30392   1.00
H2       0.15526    1.04354    0.27902   1.00
H2       0.16987    1.00103    0.25300   1.00
N1       0.18645    1.00292    0.31276   1.00
C6       0.19808    1.02012    0.34612   1.00
C6       0.18195    0.96460    0.32016   1.00
C6       0.20140    0.99243    0.37512   1.00
C6       0.19116    0.95711    0.35860   1.00
H3       0.20407    1.05099    0.34924   1.00
H3       0.17297    0.94309    0.29882   1.00
H3       0.21027    0.99741    0.40498   1.00
H3       0.19051    0.92903    0.37295   1.00
C4       0.02085    0.74991    0.24997   1.00
C4       -0.02085   0.75009    0.25003   1.00
C3       0.04292    0.72011    0.26793   1.00
C3       -0.04225   0.73863    0.21674   1.00
C3       0.04184    0.78020    0.23150   1.00
C3a      -0.04263   0.76131    0.28376   1.00
C2       0.10517    0.75143    0.24952   1.00
C2       -0.10517   0.74854    0.25017   1.00
C3       0.08434    0.72093    0.26769   1.00
C3       -0.08359   0.73788    0.21688   1.00
C3       0.08320    0.78102    0.23144   1.00
C3       -0.08415   0.76024    0.28333   1.00
H1       0.02808    0.69616    0.28222   1.00
H1       -0.02685   0.72993    0.19055   1.00
H1       0.10032    0.69764    0.28181   1.00
H1       -0.09895   0.72881    0.19080   1.00
H1       0.09821    0.80503    0.21744   1.00
H1       -0.10043   0.76892    0.30897   1.00
C5       -0.02239   0.77538    0.32043   1.00
H1       0.02599    0.80392    0.21793   1.00
H2       -0.04354   0.77902    0.34474   1.00
H2       -0.00103   0.75300    0.33013   1.00
N1       -0.00292   0.81276    0.31355   1.00
C6       -0.02012   0.84612    0.30192   1.00
C6       0.03540    0.82016    0.31805   1.00
C6       0.00757    0.87512    0.29860   1.00
C6       0.04289    0.85860    0.30884   1.00
H3       -0.05099   0.84924    0.29593   1.00
H3       0.05691    0.79882    0.32703   1.00
H3       0.00259    0.90498    0.28973   1.00
H3       0.07097    0.87295    0.30949   1.00
C4       0.47915    0.74991    0.25003   1.00
C4       0.52085    0.75009    0.24997   1.00
C3       0.45708    0.72011    0.23207   1.00
C3       0.54225    0.73863    0.28326   1.00
C3       0.45816    0.78020    0.26850   1.00
C3a      0.54263    0.76131    0.21624   1.00
C2       0.39483    0.75143    0.25048   1.00
C2       0.60517    0.74854    0.24983   1.00
C3       0.41566    0.72093    0.23231   1.00
C3       0.58359    0.73788    0.28312   1.00
C3       0.41680    0.78102    0.26856   1.00
C3       0.58415    0.76024    0.21667   1.00
H1       0.47192    0.69616    0.21778   1.00
H1       0.52685    0.72993    0.30945   1.00
H1       0.39968    0.69764    0.21819   1.00
H1       0.59895    0.72881    0.30920   1.00
H1       0.40179    0.80503    0.28256   1.00
H1       0.60043    0.76892    0.19103   1.00
C5       0.52239    0.77538    0.17957   1.00
H1       0.47401    0.80392    0.28207   1.00
H2       0.54354    0.77902    0.15526   1.00
H2       0.50103    0.75300    0.16987   1.00
N1       0.50292    0.81276    0.18645   1.00
C6       0.52012    0.84612    0.19808   1.00
C6       0.46460    0.82016    0.18195   1.00
C6       0.49243    0.87512    0.20140   1.00
C6       0.45711    0.85860    0.19116   1.00
H3       0.55099    0.84924    0.20407   1.00
H3       0.44309    0.79882    0.17297   1.00
H3       0.49741    0.90498    0.21027   1.00
H3       0.42903    0.87295    0.19051   1.00
C4       0.24997    0.52085    0.24991   1.00
C4       0.25003    0.47915    0.25009   1.00
C3       0.26793    0.54292    0.22011   1.00
C3       0.21674    0.45775    0.23863   1.00
C3       0.23150    0.54184    0.28020   1.00
C3a      0.28376    0.45737    0.26131   1.00
C2       0.24952    0.60517    0.25143   1.00
C2       0.25017    0.39483    0.24854   1.00
C3       0.26769    0.58434    0.22093   1.00
C3       0.21688    0.41641    0.23788   1.00
C3       0.23144    0.58320    0.28102   1.00
C3       0.28333    0.41585    0.26024   1.00
H1       0.28222    0.52808    0.19616   1.00
H1       0.19055    0.47315    0.22993   1.00
H1       0.28181    0.60032    0.19764   1.00
H1       0.19080    0.40105    0.22881   1.00
H1       0.21744    0.59821    0.30503   1.00
H1       0.30897    0.39957    0.26892   1.00
C5       0.32043    0.47761    0.27538   1.00
H1       0.21793    0.52599    0.30392   1.00
H2       0.34474    0.45646    0.27902   1.00
H2       0.33013    0.49897    0.25300   1.00
N1       0.31355    0.49708    0.31276   1.00
C6       0.30192    0.47988    0.34612   1.00
C6       0.31805    0.53540    0.32016   1.00
C6       0.29860    0.50757    0.37512   1.00
C6       0.30884    0.54289    0.35860   1.00
H3       0.29593    0.44901    0.34924   1.00
H3       0.32703    0.55691    0.29882   1.00
H3       0.28973    0.50259    0.40498   1.00
H3       0.30949    0.57097    0.37295   1.00
C4       0.24991    0.74997    0.02085   1.00
C4       0.25009    0.75003    -0.02085   1.00
C3       0.22011    0.76793    0.04292   1.00
C3       0.23863    0.71674    -0.04225   1.00
C3       0.28020    0.73150    0.04184   1.00
C3a      0.26131    0.78376    -0.04263   1.00
C2       0.25143    0.74952    0.10517   1.00
C2       0.24854    0.75017    -0.10517   1.00
C3       0.22093    0.76769    0.08434   1.00
C3       0.23788    0.71688    -0.08359   1.00
C3       0.28102    0.73144    0.08320   1.00
C3       0.26024    0.78333    -0.08415   1.00
H1       0.19616    0.78222    0.02808   1.00
H1       0.22993    0.69055    -0.02685   1.00
H1       0.19764    0.78181    0.10032   1.00
H1       0.22881    0.69080    -0.09895   1.00
H1       0.30503    0.71744    0.09821   1.00
H1       0.26892    0.80897    -0.10043   1.00
C5       0.27538    0.82043    -0.02239   1.00
H1       0.30392    0.71793    0.02599   1.00
H2       0.27902    0.84474    -0.04354   1.00
H2       0.25300    0.83013    -0.00103   1.00
N1       0.31276    0.81355    -0.00292   1.00
C6       0.34612    0.80192    -0.02012   1.00
C6       0.32016    0.81805    0.03540   1.00
C6       0.37512    0.79860    0.00757   1.00
C6       0.35860    0.80884    0.04289   1.00
H3       0.34924    0.79593    -0.05099   1.00
H3       0.29882    0.82703    0.05691   1.00
H3       0.40498    0.78973    0.00259   1.00
H3       0.37295    0.80949    0.07097   1.00
C4       0.74991    0.25003    0.47915   1.00
C4       0.75009    0.24997    0.52085   1.00
C3       0.72011    0.23207    0.45708   1.00
C3       0.73863    0.28326    0.54225   1.00
C3       0.78020    0.26850    0.45816   1.00
C3a      0.76131    0.21624    0.54263   1.00
C2       0.75143    0.25048    0.39483   1.00
C2       0.74854    0.24983    0.60517   1.00
C3       0.72093    0.23231    0.41566   1.00
C3       0.73788    0.28312    0.58359   1.00
C3       0.78102    0.26856    0.41680   1.00
C3       0.76024    0.21667    0.58415   1.00
H1       0.69616    0.21778    0.47192   1.00
H1       0.72993    0.30945    0.52685   1.00
H1       0.69764    0.21819    0.39968   1.00
H1       0.72881    0.30920    0.59895   1.00
H1       0.80503    0.28256    0.40179   1.00
H1       0.76892    0.19103    0.60043   1.00
C5       0.77538    0.17957    0.52239   1.00
H1       0.80392    0.28207    0.47401   1.00
H2       0.77902    0.15526    0.54354   1.00
H2       0.75300    0.16987    0.50103   1.00
N1       0.81276    0.18645    0.50292   1.00
C6       0.84612    0.19808    0.52012   1.00
C6       0.82016    0.18195    0.46460   1.00
C6       0.87512    0.20140    0.49243   1.00
C6       0.85860    0.19116    0.45711   1.00
H3       0.84924    0.20407    0.55099   1.00
H3       0.79882    0.17297    0.44309   1.00
H3       0.90498    0.21027    0.49741   1.00
H3       0.87295    0.19051    0.42903   1.00
C4       0.75003    0.47915    0.24991   1.00
C4       0.74997    0.52085    0.25009   1.00
C3       0.73207    0.45708    0.22011   1.00
C3       0.78326    0.54225    0.23863   1.00
C3       0.76850    0.45816    0.28020   1.00
C3a      0.71624    0.54263    0.26131   1.00
C2       0.75048    0.39483    0.25143   1.00
C2       0.74983    0.60517    0.24854   1.00
C3       0.73231    0.41566    0.22093   1.00
C3       0.78312    0.58359    0.23788   1.00
C3       0.76856    0.41680    0.28102   1.00
C3       0.71667    0.58415    0.26024   1.00
H1       0.71778    0.47192    0.19616   1.00
H1       0.80945    0.52685    0.22993   1.00
H1       0.71819    0.39968    0.19764   1.00
H1       0.80920    0.59895    0.22881   1.00
H1       0.78256    0.40179    0.30503   1.00
H1       0.69103    0.60043    0.26892   1.00
C5       0.67957    0.52239    0.27538   1.00
H1       0.78207    0.47401    0.30392   1.00
H2       0.65526    0.54354    0.27902   1.00
H2       0.66987    0.50103    0.25300   1.00
N1       0.68645    0.50292    0.31276   1.00
C6       0.69808    0.52012    0.34612   1.00
C6       0.68195    0.46460    0.32016   1.00
C6       0.70140    0.49243    0.37512   1.00
C6       0.69116    0.45711    0.35860   1.00
H3       0.70407    0.55099    0.34924   1.00
H3       0.67297    0.44309    0.29882   1.00
H3       0.71027    0.49741    0.40498   1.00
H3       0.69051    0.42903    0.37295   1.00
C4       0.52085    0.24991    0.24997   1.00
C4       0.47915    0.25009    0.25003   1.00
C3       0.54292    0.22011    0.26793   1.00
C3       0.45775    0.23863    0.21674   1.00
C3       0.54184    0.28020    0.23150   1.00
C3a      0.45737    0.26131    0.28376   1.00
C2       0.60517    0.25143    0.24952   1.00
C2       0.39483    0.24854    0.25017   1.00
C3       0.58434    0.22093    0.26769   1.00
C3       0.41641    0.23788    0.21688   1.00
C3       0.58320    0.28102    0.23144   1.00
C3       0.41585    0.26024    0.28333   1.00
H1       0.52808    0.19616    0.28222   1.00
H1       0.47315    0.22993    0.19055   1.00
H1       0.60032    0.19764    0.28181   1.00
H1       0.40105    0.22881    0.19080   1.00
H1       0.59821    0.30503    0.21744   1.00
H1       0.39957    0.26892    0.30897   1.00
C5       0.47761    0.27538    0.32043   1.00
H1       0.52599    0.30392    0.21793   1.00
H2       0.45646    0.27902    0.34474   1.00
H2       0.49897    0.25300    0.33013   1.00
N1       0.49708    0.31276    0.31355   1.00
C6       0.47988    0.34612    0.30192   1.00
C6       0.53540    0.32016    0.31805   1.00
C6       0.50757    0.37512    0.29860   1.00
C6       0.54289    0.35860    0.30884   1.00
H3       0.44901    0.34924    0.29593   1.00
H3       0.55691    0.29882    0.32703   1.00
H3       0.50259    0.40498    0.28973   1.00
H3       0.57097    0.37295    0.30949   1.00
C4       0.97915    0.24991    0.25003   1.00
C4       1.02085    0.25009    0.24997   1.00
C3       0.95708    0.22011    0.23207   1.00
C3       1.04225    0.23863    0.28326   1.00
C3       0.95816    0.28020    0.26850   1.00
C3a      1.04263    0.26131    0.21624   1.00
C2       0.89483    0.25143    0.25048   1.00
C2       1.10517    0.24854    0.24983   1.00
C3       0.91566    0.22093    0.23231   1.00
C3       1.08359    0.23788    0.28312   1.00
C3       0.91680    0.28102    0.26856   1.00
C3       1.08415    0.26024    0.21667   1.00
H1       0.97192    0.19616    0.21778   1.00
H1       1.02685    0.22993    0.30945   1.00
H1       0.89968    0.19764    0.21819   1.00
H1       1.09895    0.22881    0.30920   1.00
H1       0.90179    0.30503    0.28256   1.00
H1       1.10043    0.26892    0.19103   1.00
C5       1.02239    0.27538    0.17957   1.00
H1       0.97401    0.30392    0.28207   1.00
H2       1.04354    0.27902    0.15526   1.00
H2       1.00103    0.25300    0.16987   1.00
N1       1.00292    0.31276    0.18645   1.00
C6       1.02012    0.34612    0.19808   1.00
C6       0.96460    0.32016    0.18195   1.00
C6       0.99243    0.37512    0.20140   1.00
C6       0.95711    0.35860    0.19116   1.00
H3       1.05099    0.34924    0.20407   1.00
H3       0.94309    0.29882    0.17297   1.00
H3       0.99741    0.40498    0.21027   1.00
H3       0.92903    0.37295    0.19051   1.00
C4       0.74997    0.02085    0.24991   1.00
C4       0.75003    -0.02085   0.25009   1.00
C3       0.76793    0.04292    0.22011   1.00
C3       0.71674    -0.04225   0.23863   1.00
C3       0.73150    0.04184    0.28020   1.00
C3a      0.78376    -0.04263   0.26131   1.00
C2       0.74952    0.10517    0.25143   1.00
C2       0.75017    -0.10517   0.24854   1.00
C3       0.76769    0.08434    0.22093   1.00
C3       0.71688    -0.08359   0.23788   1.00
C3       0.73144    0.08320    0.28102   1.00
C3       0.78333    -0.08415   0.26024   1.00
H1       0.78222    0.02808    0.19616   1.00
H1       0.69055    -0.02685   0.22993   1.00
H1       0.78181    0.10032    0.19764   1.00
H1       0.69080    -0.09895   0.22881   1.00
H1       0.71744    0.09821    0.30503   1.00
H1       0.80897    -0.10043   0.26892   1.00
C5       0.82043    -0.02239   0.27538   1.00
H1       0.71793    0.02599    0.30392   1.00
H2       0.84474    -0.04354   0.27902   1.00
H2       0.83013    -0.00103   0.25300   1.00
N1       0.81355    -0.00292   0.31276   1.00
C6       0.80192    -0.02012   0.34612   1.00
C6       0.81805    0.03540    0.32016   1.00
C6       0.79860    0.00757    0.37512   1.00
C6       0.80884    0.04289    0.35860   1.00
H3       0.79593    -0.05099   0.34924   1.00
H3       0.82703    0.05691    0.29882   1.00
H3       0.78973    0.00259    0.40498   1.00
H3       0.80949    0.07097    0.37295   1.00
C4       0.74991    0.24997    0.02085   1.00
C4       0.75009    0.25003    -0.02085   1.00
C3       0.72011    0.26793    0.04292   1.00
C3       0.73863    0.21674    -0.04225   1.00
C3       0.78020    0.23150    0.04184   1.00
C3a      0.76131    0.28376    -0.04263   1.00
C2       0.75143    0.24952    0.10517   1.00
C2       0.74854    0.25017    -0.10517   1.00
C3       0.72093    0.26769    0.08434   1.00
C3       0.73788    0.21688    -0.08359   1.00
C3       0.78102    0.23144    0.08320   1.00
C3       0.76024    0.28333    -0.08415   1.00
H1       0.69616    0.28222    0.02808   1.00
H1       0.72993    0.19055    -0.02685   1.00
H1       0.69764    0.28181    0.10032   1.00
H1       0.72881    0.19080    -0.09895   1.00
H1       0.80503    0.21744    0.09821   1.00
H1       0.76892    0.30897    -0.10043   1.00
C5       0.77538    0.32043    -0.02239   1.00
H1       0.80392    0.21793    0.02599   1.00
H2       0.77902    0.34474    -0.04354   1.00
H2       0.75300    0.33013    -0.00103   1.00
N1       0.81276    0.31355    -0.00292   1.00
C6       0.84612    0.30192    -0.02012   1.00
C6       0.82016    0.31805    0.03540   1.00
C6       0.87512    0.29860    0.00757   1.00
C6       0.85860    0.30884    0.04289   1.00
H3       0.84924    0.29593    -0.05099   1.00
H3       0.79882    0.32703    0.05691   1.00
H3       0.90498    0.28973    0.00259   1.00
H3       0.87295    0.30949    0.07097   1.00
C4       0.91491    0.91503    1.14415   1.00
C4       0.91509    0.91497    1.18585   1.00
C3       0.88511    0.89707    1.12208   1.00
C3       0.90363    0.94826    1.20725   1.00
C3       0.94520    0.93350    1.12316   1.00
C3a      0.92631    0.88124    1.20763   1.00
C2       0.91643    0.91548    1.05983   1.00
C2       0.91354    0.91483    1.27017   1.00
C3       0.88593    0.89731    1.08066   1.00
C3       0.90288    0.94812    1.24859   1.00
C3       0.94602    0.93356    1.08180   1.00
C3       0.92524    0.88167    1.24915   1.00
H1       0.86116    0.88278    1.13692   1.00
H1       0.89493    0.97445    1.19185   1.00
H1       0.86264    0.88319    1.06468   1.00
H1       0.89381    0.97420    1.26395   1.00
H1       0.97003    0.94756    1.06679   1.00
H1       0.93392    0.85603    1.26543   1.00
C5       0.94038    0.84457    1.18739   1.00
H1       0.96892    0.94707    1.13901   1.00
H2       0.94402    0.82026    1.20854   1.00
H2       0.91800    0.83487    1.16603   1.00
N1       0.97776    0.85145    1.16792   1.00
C6       1.01112    0.86308    1.18512   1.00
C6       0.98516    0.84695    1.12960   1.00
C6       1.04012    0.86640    1.15743   1.00
C6       1.02360    0.85616    1.12211   1.00
H3       1.01424    0.86907    1.21599   1.00
H3       0.96382    0.83797    1.10809   1.00
H3       1.06998    0.87527    1.16241   1.00
H3       1.03795    0.85551    1.09403   1.00
C4       0.91503    1.14415    0.91491   1.00
C4       0.91497    1.18585    0.91509   1.00
C3       0.89707    1.12208    0.88511   1.00
C3       0.94826    1.20725    0.90363   1.00
C3       0.93350    1.12316    0.94520   1.00
C3a      0.88124    1.20763    0.92631   1.00
C2       0.91548    1.05983    0.91643   1.00
C2       0.91483    1.27017    0.91354   1.00
C3       0.89731    1.08066    0.88593   1.00
C3       0.94812    1.24859    0.90288   1.00
C3       0.93356    1.08180    0.94602   1.00
C3       0.88167    1.24915    0.92524   1.00
H1       0.88278    1.13692    0.86116   1.00
H1       0.97445    1.19185    0.89493   1.00
H1       0.88319    1.06468    0.86264   1.00
H1       0.97420    1.26395    0.89381   1.00
H1       0.94756    1.06679    0.97003   1.00
H1       0.85603    1.26543    0.93392   1.00
C5       0.84457    1.18739    0.94038   1.00
H1       0.94707    1.13901    0.96892   1.00
H2       0.82026    1.20854    0.94402   1.00
H2       0.83487    1.16603    0.91800   1.00
N1       0.85145    1.16792    0.97776   1.00
C6       0.86308    1.18512    1.01112   1.00
C6       0.84695    1.12960    0.98516   1.00
C6       0.86640    1.15743    1.04012   1.00
C6       0.85616    1.12211    1.02360   1.00
H3       0.86907    1.21599    1.01424   1.00
H3       0.83797    1.10809    0.96382   1.00
H3       0.87527    1.16241    1.06998   1.00
H3       0.85551    1.09403    1.03795   1.00
C4       0.68585    0.91491    0.91497   1.00
C4       0.64415    0.91509    0.91503   1.00
C3       0.70792    0.88511    0.93293   1.00
C3       0.62275    0.90363    0.88174   1.00
C3       0.70684    0.94520    0.89650   1.00
C3a      0.62237    0.92631    0.94876   1.00
C2       0.77017    0.91643    0.91452   1.00
C2       0.55983    0.91354    0.91517   1.00
C3       0.74934    0.88593    0.93269   1.00
C3       0.58141    0.90288    0.88188   1.00
C3       0.74820    0.94602    0.89644   1.00
C3       0.58085    0.92524    0.94833   1.00
H1       0.69308    0.86116    0.94722   1.00
H1       0.63815    0.89493    0.85555   1.00
H1       0.76532    0.86264    0.94681   1.00
H1       0.56605    0.89381    0.85580   1.00
H1       0.76321    0.97003    0.88244   1.00
H1       0.56457    0.93392    0.97397   1.00
C5       0.64261    0.94038    0.98543   1.00
H1       0.69099    0.96892    0.88293   1.00
H2       0.62146    0.94402    1.00974   1.00
H2       0.66397    0.91800    0.99513   1.00
N1       0.66208    0.97776    0.97855   1.00
C6       0.64488    1.01112    0.96692   1.00
C6       0.70040    0.98516    0.98305   1.00
C6       0.67257    1.04012    0.96360   1.00
C6       0.70789    1.02360    0.97384   1.00
H3       0.61401    1.01424    0.96093   1.00
H3       0.72191    0.96382    0.99203   1.00
H3       0.66759    1.06998    0.95473   1.00
H3       0.73597    1.03795    0.97449   1.00
C4       1.14415    0.91491    0.91503   1.00
C4       1.18585    0.91509    0.91497   1.00
C3       1.12208    0.88511    0.89707   1.00
C3       1.20725    0.90363    0.94826   1.00
C3       1.12316    0.94520    0.93350   1.00
C3a      1.20763    0.92631    0.88124   1.00
C2       1.05983    0.91643    0.91548   1.00
C2       1.27017    0.91354    0.91483   1.00
C3       1.08066    0.88593    0.89731   1.00
C3       1.24859    0.90288    0.94812   1.00
C3       1.08180    0.94602    0.93356   1.00
C3       1.24915    0.92524    0.88167   1.00
H1       1.13692    0.86116    0.88278   1.00
H1       1.19185    0.89493    0.97445   1.00
H1       1.06468    0.86264    0.88319   1.00
H1       1.26395    0.89381    0.97420   1.00
H1       1.06679    0.97003    0.94756   1.00
H1       1.26543    0.93392    0.85603   1.00
C5       1.18739    0.94038    0.84457   1.00
H1       1.13901    0.96892    0.94707   1.00
H2       1.20854    0.94402    0.82026   1.00
H2       1.16603    0.91800    0.83487   1.00
N1       1.16792    0.97776    0.85145   1.00
C6       1.18512    1.01112    0.86308   1.00
C6       1.12960    0.98516    0.84695   1.00
C6       1.15743    1.04012    0.86640   1.00
C6       1.12211    1.02360    0.85616   1.00
H3       1.21599    1.01424    0.86907   1.00
H3       1.10809    0.96382    0.83797   1.00
H3       1.16241    1.06998    0.87527   1.00
H3       1.09403    1.03795    0.85551   1.00
C4       0.91497    0.68585    0.91491   1.00
C4       0.91503    0.64415    0.91509   1.00
C3       0.93293    0.70792    0.88511   1.00
C3       0.88174    0.62275    0.90363   1.00
C3       0.89650    0.70684    0.94520   1.00
C3a      0.94876    0.62237    0.92631   1.00
C2       0.91452    0.77017    0.91643   1.00
C2       0.91517    0.55983    0.91354   1.00
C3       0.93269    0.74934    0.88593   1.00
C3       0.88188    0.58141    0.90288   1.00
C3       0.89644    0.74820    0.94602   1.00
C3       0.94833    0.58085    0.92524   1.00
H1       0.94722    0.69308    0.86116   1.00
H1       0.85555    0.63815    0.89493   1.00
H1       0.94681    0.76532    0.86264   1.00
H1       0.85580    0.56605    0.89381   1.00
H1       0.88244    0.76321    0.97003   1.00
H1       0.97397    0.56457    0.93392   1.00
C5       0.98543    0.64261    0.94038   1.00
H1       0.88293    0.69099    0.96892   1.00
H2       1.00974    0.62146    0.94402   1.00
H2       0.99513    0.66397    0.91800   1.00
N1       0.97855    0.66208    0.97776   1.00
C6       0.96692    0.64488    1.01112   1.00
C6       0.98305    0.70040    0.98516   1.00
C6       0.96360    0.67257    1.04012   1.00
C6       0.97384    0.70789    1.02360   1.00
H3       0.96093    0.61401    1.01424   1.00
H3       0.99203    0.72191    0.96382   1.00
H3       0.95473    0.66759    1.06998   1.00
H3       0.97449    0.73597    1.03795   1.00
C4       0.91491    0.91497    0.68585   1.00
C4       0.91509    0.91503    0.64415   1.00
C3       0.88511    0.93293    0.70792   1.00
C3       0.90363    0.88174    0.62275   1.00
C3       0.94520    0.89650    0.70684   1.00
C3a      0.92631    0.94876    0.62237   1.00
C2       0.91643    0.91452    0.77017   1.00
C2       0.91354    0.91517    0.55983   1.00
C3       0.88593    0.93269    0.74934   1.00
C3       0.90288    0.88188    0.58141   1.00
C3       0.94602    0.89644    0.74820   1.00
C3       0.92524    0.94833    0.58085   1.00
H1       0.86116    0.94722    0.69308   1.00
H1       0.89493    0.85555    0.63815   1.00
H1       0.86264    0.94681    0.76532   1.00
H1       0.89381    0.85580    0.56605   1.00
H1       0.97003    0.88244    0.76321   1.00
H1       0.93392    0.97397    0.56457   1.00
C5       0.94038    0.98543    0.64261   1.00
H1       0.96892    0.88293    0.69099   1.00
H2       0.94402    1.00974    0.62146   1.00
H2       0.91800    0.99513    0.66397   1.00
N1       0.97776    0.97855    0.66208   1.00
C6       1.01112    0.96692    0.64488   1.00
C6       0.98516    0.98305    0.70040   1.00
C6       1.04012    0.96360    0.67257   1.00
C6       1.02360    0.97384    0.70789   1.00
H3       1.01424    0.96093    0.61401   1.00
H3       0.96382    0.99203    0.72191   1.00
H3       1.06998    0.95473    0.66759   1.00
H3       1.03795    0.97449    0.73597   1.00
C4       0.41491    0.41503    1.14415   1.00
C4       0.41509    0.41497    1.18585   1.00
C3       0.38511    0.39707    1.12208   1.00
C3       0.40363    0.44826    1.20725   1.00
C3       0.44520    0.43350    1.12316   1.00
C3a      0.42631    0.38124    1.20763   1.00
C2       0.41643    0.41548    1.05983   1.00
C2       0.41354    0.41483    1.27017   1.00
C3       0.38593    0.39731    1.08066   1.00
C3       0.40288    0.44812    1.24859   1.00
C3       0.44602    0.43356    1.08180   1.00
C3       0.42524    0.38167    1.24915   1.00
H1       0.36116    0.38278    1.13692   1.00
H1       0.39493    0.47445    1.19185   1.00
H1       0.36264    0.38319    1.06468   1.00
H1       0.39381    0.47420    1.26395   1.00
H1       0.47003    0.44756    1.06679   1.00
H1       0.43392    0.35603    1.26543   1.00
C5       0.44038    0.34457    1.18739   1.00
H1       0.46892    0.44707    1.13901   1.00
H2       0.44402    0.32026    1.20854   1.00
H2       0.41800    0.33487    1.16603   1.00
N1       0.47776    0.35145    1.16792   1.00
C6       0.51112    0.36308    1.18512   1.00
C6       0.48516    0.34695    1.12960   1.00
C6       0.54012    0.36640    1.15743   1.00
C6       0.52360    0.35616    1.12211   1.00
H3       0.51424    0.36907    1.21599   1.00
H3       0.46382    0.33797    1.10809   1.00
H3       0.56998    0.37527    1.16241   1.00
H3       0.53795    0.35551    1.09403   1.00
C4       0.41503    0.64415    0.91491   1.00
C4       0.41497    0.68585    0.91509   1.00
C3       0.39707    0.62208    0.88511   1.00
C3       0.44826    0.70725    0.90363   1.00
C3       0.43350    0.62316    0.94520   1.00
C3a      0.38124    0.70763    0.92631   1.00
C2       0.41548    0.55983    0.91643   1.00
C2       0.41483    0.77017    0.91354   1.00
C3       0.39731    0.58066    0.88593   1.00
C3       0.44812    0.74859    0.90288   1.00
C3       0.43356    0.58180    0.94602   1.00
C3       0.38167    0.74915    0.92524   1.00
H1       0.38278    0.63692    0.86116   1.00
H1       0.47445    0.69185    0.89493   1.00
H1       0.38319    0.56468    0.86264   1.00
H1       0.47420    0.76395    0.89381   1.00
H1       0.44756    0.56679    0.97003   1.00
H1       0.35603    0.76543    0.93392   1.00
C5       0.34457    0.68739    0.94038   1.00
H1       0.44707    0.63901    0.96892   1.00
H2       0.32026    0.70854    0.94402   1.00
H2       0.33487    0.66603    0.91800   1.00
N1       0.35145    0.66792    0.97776   1.00
C6       0.36308    0.68512    1.01112   1.00
C6       0.34695    0.62960    0.98516   1.00
C6       0.36640    0.65743    1.04012   1.00
C6       0.35616    0.62211    1.02360   1.00
H3       0.36907    0.71599    1.01424   1.00
H3       0.33797    0.60809    0.96382   1.00
H3       0.37527    0.66241    1.06998   1.00
H3       0.35551    0.59403    1.03795   1.00
C4       0.18585    0.41491    0.91497   1.00
C4       0.14415    0.41509    0.91503   1.00
C3       0.20792    0.38511    0.93293   1.00
C3       0.12275    0.40363    0.88174   1.00
C3       0.20684    0.44520    0.89650   1.00
C3a      0.12237    0.42631    0.94876   1.00
C2       0.27017    0.41643    0.91452   1.00
C2       0.05983    0.41354    0.91517   1.00
C3       0.24934    0.38593    0.93269   1.00
C3       0.08141    0.40288    0.88188   1.00
C3       0.24820    0.44602    0.89644   1.00
C3       0.08085    0.42524    0.94833   1.00
H1       0.19308    0.36116    0.94722   1.00
H1       0.13815    0.39493    0.85555   1.00
H1       0.26532    0.36264    0.94681   1.00
H1       0.06605    0.39381    0.85580   1.00
H1       0.26321    0.47003    0.88244   1.00
H1       0.06457    0.43392    0.97397   1.00
C5       0.14261    0.44038    0.98543   1.00
H1       0.19099    0.46892    0.88293   1.00
H2       0.12146    0.44402    1.00974   1.00
H2       0.16397    0.41800    0.99513   1.00
N1       0.16208    0.47776    0.97855   1.00
C6       0.14488    0.51112    0.96692   1.00
C6       0.20040    0.48516    0.98305   1.00
C6       0.17257    0.54012    0.96360   1.00
C6       0.20789    0.52360    0.97384   1.00
H3       0.11401    0.51424    0.96093   1.00
H3       0.22191    0.46382    0.99203   1.00
H3       0.16759    0.56998    0.95473   1.00
H3       0.23597    0.53795    0.97449   1.00
C4       0.64415    0.41491    0.91503   1.00
C4       0.68585    0.41509    0.91497   1.00
C3       0.62208    0.38511    0.89707   1.00
C3       0.70725    0.40363    0.94826   1.00
C3       0.62316    0.44520    0.93350   1.00
C3a      0.70763    0.42631    0.88124   1.00
C2       0.55983    0.41643    0.91548   1.00
C2       0.77017    0.41354    0.91483   1.00
C3       0.58066    0.38593    0.89731   1.00
C3       0.74859    0.40288    0.94812   1.00
C3       0.58180    0.44602    0.93356   1.00
C3       0.74915    0.42524    0.88167   1.00
H1       0.63692    0.36116    0.88278   1.00
H1       0.69185    0.39493    0.97445   1.00
H1       0.56468    0.36264    0.88319   1.00
H1       0.76395    0.39381    0.97420   1.00
H1       0.56679    0.47003    0.94756   1.00
H1       0.76543    0.43392    0.85603   1.00
C5       0.68739    0.44038    0.84457   1.00
H1       0.63901    0.46892    0.94707   1.00
H2       0.70854    0.44402    0.82026   1.00
H2       0.66603    0.41800    0.83487   1.00
N1       0.66792    0.47776    0.85145   1.00
C6       0.68512    0.51112    0.86308   1.00
C6       0.62960    0.48516    0.84695   1.00
C6       0.65743    0.54012    0.86640   1.00
C6       0.62211    0.52360    0.85616   1.00
H3       0.71599    0.51424    0.86907   1.00
H3       0.60809    0.46382    0.83797   1.00
H3       0.66241    0.56998    0.87527   1.00
H3       0.59403    0.53795    0.85551   1.00
C4       0.41497    0.18585    0.91491   1.00
C4       0.41503    0.14415    0.91509   1.00
C3       0.43293    0.20792    0.88511   1.00
C3       0.38174    0.12275    0.90363   1.00
C3       0.39650    0.20684    0.94520   1.00
C3a      0.44876    0.12237    0.92631   1.00
C2       0.41452    0.27017    0.91643   1.00
C2       0.41517    0.05983    0.91354   1.00
C3       0.43269    0.24934    0.88593   1.00
C3       0.38188    0.08141    0.90288   1.00
C3       0.39644    0.24820    0.94602   1.00
C3       0.44833    0.08085    0.92524   1.00
H1       0.44722    0.19308    0.86116   1.00
H1       0.35555    0.13815    0.89493   1.00
H1       0.44681    0.26532    0.86264   1.00
H1       0.35580    0.06605    0.89381   1.00
H1       0.38244    0.26321    0.97003   1.00
H1       0.47397    0.06457    0.93392   1.00
C5       0.48543    0.14261    0.94038   1.00
H1       0.38293    0.19099    0.96892   1.00
H2       0.50974    0.12146    0.94402   1.00
H2       0.49513    0.16397    0.91800   1.00
N1       0.47855    0.16208    0.97776   1.00
C6       0.46692    0.14488    1.01112   1.00
C6       0.48305    0.20040    0.98516   1.00
C6       0.46360    0.17257    1.04012   1.00
C6       0.47384    0.20789    1.02360   1.00
H3       0.46093    0.11401    1.01424   1.00
H3       0.49203    0.22191    0.96382   1.00
H3       0.45473    0.16759    1.06998   1.00
H3       0.47449    0.23597    1.03795   1.00
C4       0.41491    0.41497    0.68585   1.00
C4       0.41509    0.41503    0.64415   1.00
C3       0.38511    0.43293    0.70792   1.00
C3       0.40363    0.38174    0.62275   1.00
C3       0.44520    0.39650    0.70684   1.00
C3a      0.42631    0.44876    0.62237   1.00
C2       0.41643    0.41452    0.77017   1.00
C2       0.41354    0.41517    0.55983   1.00
C3       0.38593    0.43269    0.74934   1.00
C3       0.40288    0.38188    0.58141   1.00
C3       0.44602    0.39644    0.74820   1.00
C3       0.42524    0.44833    0.58085   1.00
H1       0.36116    0.44722    0.69308   1.00
H1       0.39493    0.35555    0.63815   1.00
H1       0.36264    0.44681    0.76532   1.00
H1       0.39381    0.35580    0.56605   1.00
H1       0.47003    0.38244    0.76321   1.00
H1       0.43392    0.47397    0.56457   1.00
C5       0.44038    0.48543    0.64261   1.00
H1       0.46892    0.38293    0.69099   1.00
H2       0.44402    0.50974    0.62146   1.00
H2       0.41800    0.49513    0.66397   1.00
N1       0.47776    0.47855    0.66208   1.00
C6       0.51112    0.46692    0.64488   1.00
C6       0.48516    0.48305    0.70040   1.00
C6       0.54012    0.46360    0.67257   1.00
C6       0.52360    0.47384    0.70789   1.00
H3       0.51424    0.46093    0.61401   1.00
H3       0.46382    0.49203    0.72191   1.00
H3       0.56998    0.45473    0.66759   1.00
H3       0.53795    0.47449    0.73597   1.00
C4       0.41491    0.91503    0.64415   1.00
C4       0.41509    0.91497    0.68585   1.00
C3       0.38511    0.89707    0.62208   1.00
C3       0.40363    0.94826    0.70725   1.00
C3       0.44520    0.93350    0.62316   1.00
C3a      0.42631    0.88124    0.70763   1.00
C2       0.41643    0.91548    0.55983   1.00
C2       0.41354    0.91483    0.77017   1.00
C3       0.38593    0.89731    0.58066   1.00
C3       0.40288    0.94812    0.74859   1.00
C3       0.44602    0.93356    0.58180   1.00
C3       0.42524    0.88167    0.74915   1.00
H1       0.36116    0.88278    0.63692   1.00
H1       0.39493    0.97445    0.69185   1.00
H1       0.36264    0.88319    0.56468   1.00
H1       0.39381    0.97420    0.76395   1.00
H1       0.47003    0.94756    0.56679   1.00
H1       0.43392    0.85603    0.76543   1.00
C5       0.44038    0.84457    0.68739   1.00
H1       0.46892    0.94707    0.63901   1.00
H2       0.44402    0.82026    0.70854   1.00
H2       0.41800    0.83487    0.66603   1.00
N1       0.47776    0.85145    0.66792   1.00
C6       0.51112    0.86308    0.68512   1.00
C6       0.48516    0.84695    0.62960   1.00
C6       0.54012    0.86640    0.65743   1.00
C6       0.52360    0.85616    0.62211   1.00
H3       0.51424    0.86907    0.71599   1.00
H3       0.46382    0.83797    0.60809   1.00
H3       0.56998    0.87527    0.66241   1.00
H3       0.53795    0.85551    0.59403   1.00
C4       0.41503    1.14415    0.41491   1.00
C4       0.41497    1.18585    0.41509   1.00
C3       0.39707    1.12208    0.38511   1.00
C3       0.44826    1.20725    0.40363   1.00
C3       0.43350    1.12316    0.44520   1.00
C3a      0.38124    1.20763    0.42631   1.00
C2       0.41548    1.05983    0.41643   1.00
C2       0.41483    1.27017    0.41354   1.00
C3       0.39731    1.08066    0.38593   1.00
C3       0.44812    1.24859    0.40288   1.00
C3       0.43356    1.08180    0.44602   1.00
C3       0.38167    1.24915    0.42524   1.00
H1       0.38278    1.13692    0.36116   1.00
H1       0.47445    1.19185    0.39493   1.00
H1       0.38319    1.06468    0.36264   1.00
H1       0.47420    1.26395    0.39381   1.00
H1       0.44756    1.06679    0.47003   1.00
H1       0.35603    1.26543    0.43392   1.00
C5       0.34457    1.18739    0.44038   1.00
H1       0.44707    1.13901    0.46892   1.00
H2       0.32026    1.20854    0.44402   1.00
H2       0.33487    1.16603    0.41800   1.00
N1       0.35145    1.16792    0.47776   1.00
C6       0.36308    1.18512    0.51112   1.00
C6       0.34695    1.12960    0.48516   1.00
C6       0.36640    1.15743    0.54012   1.00
C6       0.35616    1.12211    0.52360   1.00
H3       0.36907    1.21599    0.51424   1.00
H3       0.33797    1.10809    0.46382   1.00
H3       0.37527    1.16241    0.56998   1.00
H3       0.35551    1.09403    0.53795   1.00
C4       0.18585    0.91491    0.41497   1.00
C4       0.14415    0.91509    0.41503   1.00
C3       0.20792    0.88511    0.43293   1.00
C3       0.12275    0.90363    0.38174   1.00
C3       0.20684    0.94520    0.39650   1.00
C3a      0.12237    0.92631    0.44876   1.00
C2       0.27017    0.91643    0.41452   1.00
C2       0.05983    0.91354    0.41517   1.00
C3       0.24934    0.88593    0.43269   1.00
C3       0.08141    0.90288    0.38188   1.00
C3       0.24820    0.94602    0.39644   1.00
C3       0.08085    0.92524    0.44833   1.00
H1       0.19308    0.86116    0.44722   1.00
H1       0.13815    0.89493    0.35555   1.00
H1       0.26532    0.86264    0.44681   1.00
H1       0.06605    0.89381    0.35580   1.00
H1       0.26321    0.97003    0.38244   1.00
H1       0.06457    0.93392    0.47397   1.00
C5       0.14261    0.94038    0.48543   1.00
H1       0.19099    0.96892    0.38293   1.00
H2       0.12146    0.94402    0.50974   1.00
H2       0.16397    0.91800    0.49513   1.00
N1       0.16208    0.97776    0.47855   1.00
C6       0.14488    1.01112    0.46692   1.00
C6       0.20040    0.98516    0.48305   1.00
C6       0.17257    1.04012    0.46360   1.00
C6       0.20789    1.02360    0.47384   1.00
H3       0.11401    1.01424    0.46093   1.00
H3       0.22191    0.96382    0.49203   1.00
H3       0.16759    1.06998    0.45473   1.00
H3       0.23597    1.03795    0.47449   1.00
C4       0.64415    0.91491    0.41503   1.00
C4       0.68585    0.91509    0.41497   1.00
C3       0.62208    0.88511    0.39707   1.00
C3       0.70725    0.90363    0.44826   1.00
C3       0.62316    0.94520    0.43350   1.00
C3a      0.70763    0.92631    0.38124   1.00
C2       0.55983    0.91643    0.41548   1.00
C2       0.77017    0.91354    0.41483   1.00
C3       0.58066    0.88593    0.39731   1.00
C3       0.74859    0.90288    0.44812   1.00
C3       0.58180    0.94602    0.43356   1.00
C3       0.74915    0.92524    0.38167   1.00
H1       0.63692    0.86116    0.38278   1.00
H1       0.69185    0.89493    0.47445   1.00
H1       0.56468    0.86264    0.38319   1.00
H1       0.76395    0.89381    0.47420   1.00
H1       0.56679    0.97003    0.44756   1.00
H1       0.76543    0.93392    0.35603   1.00
C5       0.68739    0.94038    0.34457   1.00
H1       0.63901    0.96892    0.44707   1.00
H2       0.70854    0.94402    0.32026   1.00
H2       0.66603    0.91800    0.33487   1.00
N1       0.66792    0.97776    0.35145   1.00
C6       0.68512    1.01112    0.36308   1.00
C6       0.62960    0.98516    0.34695   1.00
C6       0.65743    1.04012    0.36640   1.00
C6       0.62211    1.02360    0.35616   1.00
H3       0.71599    1.01424    0.36907   1.00
H3       0.60809    0.96382    0.33797   1.00
H3       0.66241    1.06998    0.37527   1.00
H3       0.59403    1.03795    0.35551   1.00
C4       0.41497    0.68585    0.41491   1.00
C4       0.41503    0.64415    0.41509   1.00
C3       0.43293    0.70792    0.38511   1.00
C3       0.38174    0.62275    0.40363   1.00
C3       0.39650    0.70684    0.44520   1.00
C3a      0.44876    0.62237    0.42631   1.00
C2       0.41452    0.77017    0.41643   1.00
C2       0.41517    0.55983    0.41354   1.00
C3       0.43269    0.74934    0.38593   1.00
C3       0.38188    0.58141    0.40288   1.00
C3       0.39644    0.74820    0.44602   1.00
C3       0.44833    0.58085    0.42524   1.00
H1       0.44722    0.69308    0.36116   1.00
H1       0.35555    0.63815    0.39493   1.00
H1       0.44681    0.76532    0.36264   1.00
H1       0.35580    0.56605    0.39381   1.00
H1       0.38244    0.76321    0.47003   1.00
H1       0.47397    0.56457    0.43392   1.00
C5       0.48543    0.64261    0.44038   1.00
H1       0.38293    0.69099    0.46892   1.00
H2       0.50974    0.62146    0.44402   1.00
H2       0.49513    0.66397    0.41800   1.00
N1       0.47855    0.66208    0.47776   1.00
C6       0.46692    0.64488    0.51112   1.00
C6       0.48305    0.70040    0.48516   1.00
C6       0.46360    0.67257    0.54012   1.00
C6       0.47384    0.70789    0.52360   1.00
H3       0.46093    0.61401    0.51424   1.00
H3       0.49203    0.72191    0.46382   1.00
H3       0.45473    0.66759    0.56998   1.00
H3       0.47449    0.73597    0.53795   1.00
C4       0.41491    0.91497    0.18585   1.00
C4       0.41509    0.91503    0.14415   1.00
C3       0.38511    0.93293    0.20792   1.00
C3       0.40363    0.88174    0.12275   1.00
C3       0.44520    0.89650    0.20684   1.00
C3a      0.42631    0.94876    0.12237   1.00
C2       0.41643    0.91452    0.27017   1.00
C2       0.41354    0.91517    0.05983   1.00
C3       0.38593    0.93269    0.24934   1.00
C3       0.40288    0.88188    0.08141   1.00
C3       0.44602    0.89644    0.24820   1.00
C3       0.42524    0.94833    0.08085   1.00
H1       0.36116    0.94722    0.19308   1.00
H1       0.39493    0.85555    0.13815   1.00
H1       0.36264    0.94681    0.26532   1.00
H1       0.39381    0.85580    0.06605   1.00
H1       0.47003    0.88244    0.26321   1.00
H1       0.43392    0.97397    0.06457   1.00
C5       0.44038    0.98543    0.14261   1.00
H1       0.46892    0.88293    0.19099   1.00
H2       0.44402    1.00974    0.12146   1.00
H2       0.41800    0.99513    0.16397   1.00
N1       0.47776    0.97855    0.16208   1.00
C6       0.51112    0.96692    0.14488   1.00
C6       0.48516    0.98305    0.20040   1.00
C6       0.54012    0.96360    0.17257   1.00
C6       0.52360    0.97384    0.20789   1.00
H3       0.51424    0.96093    0.11401   1.00
H3       0.46382    0.99203    0.22191   1.00
H3       0.56998    0.95473    0.16759   1.00
H3       0.53795    0.97449    0.23597   1.00
C4       0.91491    0.41503    0.64415   1.00
C4       0.91509    0.41497    0.68585   1.00
C3       0.88511    0.39707    0.62208   1.00
C3       0.90363    0.44826    0.70725   1.00
C3       0.94520    0.43350    0.62316   1.00
C3a      0.92631    0.38124    0.70763   1.00
C2       0.91643    0.41548    0.55983   1.00
C2       0.91354    0.41483    0.77017   1.00
C3       0.88593    0.39731    0.58066   1.00
C3       0.90288    0.44812    0.74859   1.00
C3       0.94602    0.43356    0.58180   1.00
C3       0.92524    0.38167    0.74915   1.00
H1       0.86116    0.38278    0.63692   1.00
H1       0.89493    0.47445    0.69185   1.00
H1       0.86264    0.38319    0.56468   1.00
H1       0.89381    0.47420    0.76395   1.00
H1       0.97003    0.44756    0.56679   1.00
H1       0.93392    0.35603    0.76543   1.00
C5       0.94038    0.34457    0.68739   1.00
H1       0.96892    0.44707    0.63901   1.00
H2       0.94402    0.32026    0.70854   1.00
H2       0.91800    0.33487    0.66603   1.00
N1       0.97776    0.35145    0.66792   1.00
C6       1.01112    0.36308    0.68512   1.00
C6       0.98516    0.34695    0.62960   1.00
C6       1.04012    0.36640    0.65743   1.00
C6       1.02360    0.35616    0.62211   1.00
H3       1.01424    0.36907    0.71599   1.00
H3       0.96382    0.33797    0.60809   1.00
H3       1.06998    0.37527    0.66241   1.00
H3       1.03795    0.35551    0.59403   1.00
C4       0.91503    0.64415    0.41491   1.00
C4       0.91497    0.68585    0.41509   1.00
C3       0.89707    0.62208    0.38511   1.00
C3       0.94826    0.70725    0.40363   1.00
C3       0.93350    0.62316    0.44520   1.00
C3a      0.88124    0.70763    0.42631   1.00
C2       0.91548    0.55983    0.41643   1.00
C2       0.91483    0.77017    0.41354   1.00
C3       0.89731    0.58066    0.38593   1.00
C3       0.94812    0.74859    0.40288   1.00
C3       0.93356    0.58180    0.44602   1.00
C3       0.88167    0.74915    0.42524   1.00
H1       0.88278    0.63692    0.36116   1.00
H1       0.97445    0.69185    0.39493   1.00
H1       0.88319    0.56468    0.36264   1.00
H1       0.97420    0.76395    0.39381   1.00
H1       0.94756    0.56679    0.47003   1.00
H1       0.85603    0.76543    0.43392   1.00
C5       0.84457    0.68739    0.44038   1.00
H1       0.94707    0.63901    0.46892   1.00
H2       0.82026    0.70854    0.44402   1.00
H2       0.83487    0.66603    0.41800   1.00
N1       0.85145    0.66792    0.47776   1.00
C6       0.86308    0.68512    0.51112   1.00
C6       0.84695    0.62960    0.48516   1.00
C6       0.86640    0.65743    0.54012   1.00
C6       0.85616    0.62211    0.52360   1.00
H3       0.86907    0.71599    0.51424   1.00
H3       0.83797    0.60809    0.46382   1.00
H3       0.87527    0.66241    0.56998   1.00
H3       0.85551    0.59403    0.53795   1.00
C4       0.68585    0.41491    0.41497   1.00
C4       0.64415    0.41509    0.41503   1.00
C3       0.70792    0.38511    0.43293   1.00
C3       0.62275    0.40363    0.38174   1.00
C3       0.70684    0.44520    0.39650   1.00
C3a      0.62237    0.42631    0.44876   1.00
C2       0.77017    0.41643    0.41452   1.00
C2       0.55983    0.41354    0.41517   1.00
C3       0.74934    0.38593    0.43269   1.00
C3       0.58141    0.40288    0.38188   1.00
C3       0.74820    0.44602    0.39644   1.00
C3       0.58085    0.42524    0.44833   1.00
H1       0.69308    0.36116    0.44722   1.00
H1       0.63815    0.39493    0.35555   1.00
H1       0.76532    0.36264    0.44681   1.00
H1       0.56605    0.39381    0.35580   1.00
H1       0.76321    0.47003    0.38244   1.00
H1       0.56457    0.43392    0.47397   1.00
C5       0.64261    0.44038    0.48543   1.00
H1       0.69099    0.46892    0.38293   1.00
H2       0.62146    0.44402    0.50974   1.00
H2       0.66397    0.41800    0.49513   1.00
N1       0.66208    0.47776    0.47855   1.00
C6       0.64488    0.51112    0.46692   1.00
C6       0.70040    0.48516    0.48305   1.00
C6       0.67257    0.54012    0.46360   1.00
C6       0.70789    0.52360    0.47384   1.00
H3       0.61401    0.51424    0.46093   1.00
H3       0.72191    0.46382    0.49203   1.00
H3       0.66759    0.56998    0.45473   1.00
H3       0.73597    0.53795    0.47449   1.00
C4       1.14415    0.41491    0.41503   1.00
C4       1.18585    0.41509    0.41497   1.00
C3       1.12208    0.38511    0.39707   1.00
C3       1.20725    0.40363    0.44826   1.00
C3       1.12316    0.44520    0.43350   1.00
C3a      1.20763    0.42631    0.38124   1.00
C2       1.05983    0.41643    0.41548   1.00
C2       1.27017    0.41354    0.41483   1.00
C3       1.08066    0.38593    0.39731   1.00
C3       1.24859    0.40288    0.44812   1.00
C3       1.08180    0.44602    0.43356   1.00
C3       1.24915    0.42524    0.38167   1.00
H1       1.13692    0.36116    0.38278   1.00
H1       1.19185    0.39493    0.47445   1.00
H1       1.06468    0.36264    0.38319   1.00
H1       1.26395    0.39381    0.47420   1.00
H1       1.06679    0.47003    0.44756   1.00
H1       1.26543    0.43392    0.35603   1.00
C5       1.18739    0.44038    0.34457   1.00
H1       1.13901    0.46892    0.44707   1.00
H2       1.20854    0.44402    0.32026   1.00
H2       1.16603    0.41800    0.33487   1.00
N1       1.16792    0.47776    0.35145   1.00
C6       1.18512    0.51112    0.36308   1.00
C6       1.12960    0.48516    0.34695   1.00
C6       1.15743    0.54012    0.36640   1.00
C6       1.12211    0.52360    0.35616   1.00
H3       1.21599    0.51424    0.36907   1.00
H3       1.10809    0.46382    0.33797   1.00
H3       1.16241    0.56998    0.37527   1.00
H3       1.09403    0.53795    0.35551   1.00
C4       0.91497    0.18585    0.41491   1.00
C4       0.91503    0.14415    0.41509   1.00
C3       0.93293    0.20792    0.38511   1.00
C3       0.88174    0.12275    0.40363   1.00
C3       0.89650    0.20684    0.44520   1.00
C3a      0.94876    0.12237    0.42631   1.00
C2       0.91452    0.27017    0.41643   1.00
C2       0.91517    0.05983    0.41354   1.00
C3       0.93269    0.24934    0.38593   1.00
C3       0.88188    0.08141    0.40288   1.00
C3       0.89644    0.24820    0.44602   1.00
C3       0.94833    0.08085    0.42524   1.00
H1       0.94722    0.19308    0.36116   1.00
H1       0.85555    0.13815    0.39493   1.00
H1       0.94681    0.26532    0.36264   1.00
H1       0.85580    0.06605    0.39381   1.00
H1       0.88244    0.26321    0.47003   1.00
H1       0.97397    0.06457    0.43392   1.00
C5       0.98543    0.14261    0.44038   1.00
H1       0.88293    0.19099    0.46892   1.00
H2       1.00974    0.12146    0.44402   1.00
H2       0.99513    0.16397    0.41800   1.00
N1       0.97855    0.16208    0.47776   1.00
C6       0.96692    0.14488    0.51112   1.00
C6       0.98305    0.20040    0.48516   1.00
C6       0.96360    0.17257    0.54012   1.00
C6       0.97384    0.20789    0.52360   1.00
H3       0.96093    0.11401    0.51424   1.00
H3       0.99203    0.22191    0.46382   1.00
H3       0.95473    0.16759    0.56998   1.00
H3       0.97449    0.23597    0.53795   1.00
C4       0.91491    0.41497    0.18585   1.00
C4       0.91509    0.41503    0.14415   1.00
C3       0.88511    0.43293    0.20792   1.00
C3       0.90363    0.38174    0.12275   1.00
C3       0.94520    0.39650    0.20684   1.00
C3a      0.92631    0.44876    0.12237   1.00
C2       0.91643    0.41452    0.27017   1.00
C2       0.91354    0.41517    0.05983   1.00
C3       0.88593    0.43269    0.24934   1.00
C3       0.90288    0.38188    0.08141   1.00
C3       0.94602    0.39644    0.24820   1.00
C3       0.92524    0.44833    0.08085   1.00
H1       0.86116    0.44722    0.19308   1.00
H1       0.89493    0.35555    0.13815   1.00
H1       0.86264    0.44681    0.26532   1.00
H1       0.89381    0.35580    0.06605   1.00
H1       0.97003    0.38244    0.26321   1.00
H1       0.93392    0.47397    0.06457   1.00
C5       0.94038    0.48543    0.14261   1.00
H1       0.96892    0.38293    0.19099   1.00
H2       0.94402    0.50974    0.12146   1.00
H2       0.91800    0.49513    0.16397   1.00
N1       0.97776    0.47855    0.16208   1.00
C6       1.01112    0.46692    0.14488   1.00
C6       0.98516    0.48305    0.20040   1.00
C6       1.04012    0.46360    0.17257   1.00
C6       1.02360    0.47384    0.20789   1.00
H3       1.01424    0.46093    0.11401   1.00
H3       0.96382    0.49203    0.22191   1.00
H3       1.06998    0.45473    0.16759   1.00
H3       1.03795    0.47449    0.23597   1.00
