data_IRMOF10_SG202_interpen_Ligand1cp_label_i.

_audit_creation_method             'generated by an auxiliary program of Tobunporous'

_symmetry_space_group_name_H-M     'P 1'
_symmetry_Int_Tables_number        1
_symmetry_cell_setting             triclinic

_cell_length_a                    34.2800
_cell_length_b                    34.2800
_cell_length_c                    34.2800
_cell_angle_alpha                 90.0000
_cell_angle_beta                  90.0000
_cell_angle_gamma                 90.0000

loop_
_atom_site_label
_atom_site_fract_x
_atom_site_fract_y
_atom_site_fract_z
_atom_site_occupancy
O1       0.75000    0.75000    0.75000   1.00
Zn1      0.71720    0.78280    0.78280   1.00
Zn1      0.78280    0.71720    0.78280   1.00
Zn1      0.78280    0.78280    0.71720   1.00
Zn1      0.71720    0.71720    0.71720   1.00
O2       0.72650    0.77350    0.83820   1.00
O2       0.72650    0.83820    0.77350   1.00
O2       0.66180    0.77350    0.77350   1.00
O2       0.77350    0.72650    0.83820   1.00
O2       0.83820    0.72650    0.77350   1.00
O2       0.77350    0.66180    0.77350   1.00
O2       0.77350    0.83820    0.72650   1.00
O2       0.83820    0.77350    0.72650   1.00
O2       0.77350    0.77350    0.66180   1.00
O2       0.66180    0.72650    0.72650   1.00
O2       0.72650    0.66180    0.72650   1.00
O2       0.72650    0.72650    0.66180   1.00
C1       0.75000    0.75000    0.85520   1.00
C1       0.75000    0.85520    0.75000   1.00
C1       0.64480    0.75000    0.75000   1.00
C1       0.85520    0.75000    0.75000   1.00
C1       0.75000    0.64480    0.75000   1.00
C1       0.75000    0.75000    0.64480   1.00
O1       0.25000    0.25000    0.75000   1.00
Zn1      0.21720    0.28280    0.78280   1.00
Zn1      0.28280    0.21720    0.78280   1.00
Zn1      0.28280    0.28280    0.71720   1.00
Zn1      0.21720    0.21720    0.71720   1.00
O2       0.22650    0.27350    0.83820   1.00
O2       0.22650    0.33820    0.77350   1.00
O2       0.16180    0.27350    0.77350   1.00
O2       0.27350    0.22650    0.83820   1.00
O2       0.33820    0.22650    0.77350   1.00
O2       0.27350    0.16180    0.77350   1.00
O2       0.27350    0.33820    0.72650   1.00
O2       0.33820    0.27350    0.72650   1.00
O2       0.27350    0.27350    0.66180   1.00
O2       0.16180    0.22650    0.72650   1.00
O2       0.22650    0.16180    0.72650   1.00
O2       0.22650    0.22650    0.66180   1.00
C1       0.25000    0.25000    0.85520   1.00
C1       0.25000    0.35520    0.75000   1.00
C1       0.14480    0.25000    0.75000   1.00
C1       0.35520    0.25000    0.75000   1.00
C1       0.25000    0.14480    0.75000   1.00
C1       0.25000    0.25000    0.64480   1.00
O1       0.25000    0.75000    0.25000   1.00
Zn1      0.21720    0.78280    0.28280   1.00
Zn1      0.28280    0.71720    0.28280   1.00
Zn1      0.28280    0.78280    0.21720   1.00
Zn1      0.21720    0.71720    0.21720   1.00
O2       0.22650    0.77350    0.33820   1.00
O2       0.22650    0.83820    0.27350   1.00
O2       0.16180    0.77350    0.27350   1.00
O2       0.27350    0.72650    0.33820   1.00
O2       0.33820    0.72650    0.27350   1.00
O2       0.27350    0.66180    0.27350   1.00
O2       0.27350    0.83820    0.22650   1.00
O2       0.33820    0.77350    0.22650   1.00
O2       0.27350    0.77350    0.16180   1.00
O2       0.16180    0.72650    0.22650   1.00
O2       0.22650    0.66180    0.22650   1.00
O2       0.22650    0.72650    0.16180   1.00
C1       0.25000    0.75000    0.35520   1.00
C1       0.25000    0.85520    0.25000   1.00
C1       0.14480    0.75000    0.25000   1.00
C1       0.35520    0.75000    0.25000   1.00
C1       0.25000    0.64480    0.25000   1.00
C1       0.25000    0.75000    0.14480   1.00
O1       0.75000    0.25000    0.25000   1.00
Zn1      0.71720    0.28280    0.28280   1.00
Zn1      0.78280    0.21720    0.28280   1.00
Zn1      0.78280    0.28280    0.21720   1.00
Zn1      0.71720    0.21720    0.21720   1.00
O2       0.72650    0.27350    0.33820   1.00
O2       0.72650    0.33820    0.27350   1.00
O2       0.66180    0.27350    0.27350   1.00
O2       0.77350    0.22650    0.33820   1.00
O2       0.83820    0.22650    0.27350   1.00
O2       0.77350    0.16180    0.27350   1.00
O2       0.77350    0.33820    0.22650   1.00
O2       0.83820    0.27350    0.22650   1.00
O2       0.77350    0.27350    0.16180   1.00
O2       0.66180    0.22650    0.22650   1.00
O2       0.72650    0.16180    0.22650   1.00
O2       0.72650    0.22650    0.16180   1.00
C1       0.75000    0.25000    0.35520   1.00
C1       0.75000    0.35520    0.25000   1.00
C1       0.64480    0.25000    0.25000   1.00
C1       0.85520    0.25000    0.25000   1.00
C1       0.75000    0.14480    0.25000   1.00
C1       0.75000    0.25000    0.14480   1.00
O1       0.25000    0.25000    0.25000   1.00
Zn1      0.28280    0.21720    0.21720   1.00
Zn1      0.21720    0.28280    0.21720   1.00
Zn1      0.21720    0.21720    0.28280   1.00
Zn1      0.28280    0.28280    0.28280   1.00
O2       0.27350    0.22650    0.16180   1.00
O2       0.27350    0.16180    0.22650   1.00
O2       0.33820    0.22650    0.22650   1.00
O2       0.22650    0.27350    0.16180   1.00
O2       0.16180    0.27350    0.22650   1.00
O2       0.22650    0.33820    0.22650   1.00
O2       0.22650    0.16180    0.27350   1.00
O2       0.16180    0.22650    0.27350   1.00
O2       0.22650    0.22650    0.33820   1.00
O2       0.33820    0.27350    0.27350   1.00
O2       0.27350    0.33820    0.27350   1.00
O2       0.27350    0.27350    0.33820   1.00
C1       0.25000    0.25000    0.14480   1.00
C1       0.25000    0.14480    0.25000   1.00
C1       0.35520    0.25000    0.25000   1.00
C1       0.14480    0.25000    0.25000   1.00
C1       0.25000    0.35520    0.25000   1.00
C1       0.25000    0.25000    0.35520   1.00
O1       0.75000    0.75000    0.25000   1.00
Zn1      0.78280    0.71720    0.21720   1.00
Zn1      0.71720    0.78280    0.21720   1.00
Zn1      0.71720    0.71720    0.28280   1.00
Zn1      0.78280    0.78280    0.28280   1.00
O2       0.77350    0.72650    0.16180   1.00
O2       0.77350    0.66180    0.22650   1.00
O2       0.83820    0.72650    0.22650   1.00
O2       0.72650    0.77350    0.16180   1.00
O2       0.66180    0.77350    0.22650   1.00
O2       0.72650    0.83820    0.22650   1.00
O2       0.72650    0.66180    0.27350   1.00
O2       0.66180    0.72650    0.27350   1.00
O2       0.72650    0.72650    0.33820   1.00
O2       0.83820    0.77350    0.27350   1.00
O2       0.77350    0.83820    0.27350   1.00
O2       0.77350    0.77350    0.33820   1.00
C1       0.75000    0.75000    0.14480   1.00
C1       0.75000    0.64480    0.25000   1.00
C1       0.85520    0.75000    0.25000   1.00
C1       0.64480    0.75000    0.25000   1.00
C1       0.75000    0.85520    0.25000   1.00
C1       0.75000    0.75000    0.35520   1.00
O1       0.75000    0.25000    0.75000   1.00
Zn1      0.78280    0.21720    0.71720   1.00
Zn1      0.71720    0.28280    0.71720   1.00
Zn1      0.71720    0.21720    0.78280   1.00
Zn1      0.78280    0.28280    0.78280   1.00
O2       0.77350    0.22650    0.66180   1.00
O2       0.77350    0.16180    0.72650   1.00
O2       0.83820    0.22650    0.72650   1.00
O2       0.72650    0.27350    0.66180   1.00
O2       0.66180    0.27350    0.72650   1.00
O2       0.72650    0.33820    0.72650   1.00
O2       0.72650    0.16180    0.77350   1.00
O2       0.66180    0.22650    0.77350   1.00
O2       0.72650    0.22650    0.83820   1.00
O2       0.83820    0.27350    0.77350   1.00
O2       0.77350    0.33820    0.77350   1.00
O2       0.77350    0.27350    0.83820   1.00
C1       0.75000    0.25000    0.64480   1.00
C1       0.75000    0.14480    0.75000   1.00
C1       0.85520    0.25000    0.75000   1.00
C1       0.64480    0.25000    0.75000   1.00
C1       0.75000    0.35520    0.75000   1.00
C1       0.75000    0.25000    0.85520   1.00
O1       0.25000    0.75000    0.75000   1.00
Zn1      0.28280    0.71720    0.71720   1.00
Zn1      0.21720    0.78280    0.71720   1.00
Zn1      0.21720    0.71720    0.78280   1.00
Zn1      0.28280    0.78280    0.78280   1.00
O2       0.27350    0.72650    0.66180   1.00
O2       0.27350    0.66180    0.72650   1.00
O2       0.33820    0.72650    0.72650   1.00
O2       0.22650    0.77350    0.66180   1.00
O2       0.16180    0.77350    0.72650   1.00
O2       0.22650    0.83820    0.72650   1.00
O2       0.22650    0.66180    0.77350   1.00
O2       0.16180    0.72650    0.77350   1.00
O2       0.22650    0.72650    0.83820   1.00
O2       0.33820    0.77350    0.77350   1.00
O2       0.27350    0.83820    0.77350   1.00
O2       0.27350    0.77350    0.83820   1.00
C1       0.25000    0.75000    0.64480   1.00
C1       0.25000    0.64480    0.75000   1.00
C1       0.35520    0.75000    0.75000   1.00
C1       0.14480    0.75000    0.75000   1.00
C1       0.25000    0.85520    0.75000   1.00
C1       0.25000    0.75000    0.85520   1.00
O1       0.91500    0.91500    0.91500   1.00
Zn1      0.88220    0.94780    0.94780   1.00
Zn1      0.94780    0.88220    0.94780   1.00
Zn1      0.94780    0.94780    0.88220   1.00
Zn1      0.88220    0.88220    0.88220   1.00
O2       0.89150    0.93850    1.00320   1.00
O2       0.89150    1.00320    0.93850   1.00
O2       0.82680    0.93850    0.93850   1.00
O2       0.93850    0.89150    1.00320   1.00
O2       1.00320    0.89150    0.93850   1.00
O2       0.93850    0.82680    0.93850   1.00
O2       0.93850    1.00320    0.89150   1.00
O2       1.00320    0.93850    0.89150   1.00
O2       0.93850    0.93850    0.82680   1.00
O2       0.82680    0.89150    0.89150   1.00
O2       0.89150    0.82680    0.89150   1.00
O2       0.89150    0.89150    0.82680   1.00
C1       0.91500    0.91500    1.02020   1.00
C1       0.91500    1.02020    0.91500   1.00
C1       0.80980    0.91500    0.91500   1.00
C1       1.02020    0.91500    0.91500   1.00
C1       0.91500    0.80980    0.91500   1.00
C1       0.91500    0.91500    0.80980   1.00
O1       0.41500    0.41500    0.91500   1.00
Zn1      0.38220    0.44780    0.94780   1.00
Zn1      0.44780    0.38220    0.94780   1.00
Zn1      0.44780    0.44780    0.88220   1.00
Zn1      0.38220    0.38220    0.88220   1.00
O2       0.39150    0.43850    1.00320   1.00
O2       0.39150    0.50320    0.93850   1.00
O2       0.32680    0.43850    0.93850   1.00
O2       0.43850    0.39150    1.00320   1.00
O2       0.50320    0.39150    0.93850   1.00
O2       0.43850    0.32680    0.93850   1.00
O2       0.43850    0.50320    0.89150   1.00
O2       0.50320    0.43850    0.89150   1.00
O2       0.43850    0.43850    0.82680   1.00
O2       0.32680    0.39150    0.89150   1.00
O2       0.39150    0.32680    0.89150   1.00
O2       0.39150    0.39150    0.82680   1.00
C1       0.41500    0.41500    1.02020   1.00
C1       0.41500    0.52020    0.91500   1.00
C1       0.30980    0.41500    0.91500   1.00
C1       0.52020    0.41500    0.91500   1.00
C1       0.41500    0.30980    0.91500   1.00
C1       0.41500    0.41500    0.80980   1.00
O1       0.41500    0.91500    0.41500   1.00
Zn1      0.38220    0.94780    0.44780   1.00
Zn1      0.44780    0.88220    0.44780   1.00
Zn1      0.44780    0.94780    0.38220   1.00
Zn1      0.38220    0.88220    0.38220   1.00
O2       0.39150    0.93850    0.50320   1.00
O2       0.39150    1.00320    0.43850   1.00
O2       0.32680    0.93850    0.43850   1.00
O2       0.43850    0.89150    0.50320   1.00
O2       0.50320    0.89150    0.43850   1.00
O2       0.43850    0.82680    0.43850   1.00
O2       0.43850    1.00320    0.39150   1.00
O2       0.50320    0.93850    0.39150   1.00
O2       0.43850    0.93850    0.32680   1.00
O2       0.32680    0.89150    0.39150   1.00
O2       0.39150    0.82680    0.39150   1.00
O2       0.39150    0.89150    0.32680   1.00
C1       0.41500    0.91500    0.52020   1.00
C1       0.41500    1.02020    0.41500   1.00
C1       0.30980    0.91500    0.41500   1.00
C1       0.52020    0.91500    0.41500   1.00
C1       0.41500    0.80980    0.41500   1.00
C1       0.41500    0.91500    0.30980   1.00
O1       0.91500    0.41500    0.41500   1.00
Zn1      0.88220    0.44780    0.44780   1.00
Zn1      0.94780    0.38220    0.44780   1.00
Zn1      0.94780    0.44780    0.38220   1.00
Zn1      0.88220    0.38220    0.38220   1.00
O2       0.89150    0.43850    0.50320   1.00
O2       0.89150    0.50320    0.43850   1.00
O2       0.82680    0.43850    0.43850   1.00
O2       0.93850    0.39150    0.50320   1.00
O2       1.00320    0.39150    0.43850   1.00
O2       0.93850    0.32680    0.43850   1.00
O2       0.93850    0.50320    0.39150   1.00
O2       1.00320    0.43850    0.39150   1.00
O2       0.93850    0.43850    0.32680   1.00
O2       0.82680    0.39150    0.39150   1.00
O2       0.89150    0.32680    0.39150   1.00
O2       0.89150    0.39150    0.32680   1.00
C1       0.91500    0.41500    0.52020   1.00
C1       0.91500    0.52020    0.41500   1.00
C1       0.80980    0.41500    0.41500   1.00
C1       1.02020    0.41500    0.41500   1.00
C1       0.91500    0.30980    0.41500   1.00
C1       0.91500    0.41500    0.30980   1.00
O1       0.41500    0.41500    0.41500   1.00
Zn1      0.44780    0.38220    0.38220   1.00
Zn1      0.38220    0.44780    0.38220   1.00
Zn1      0.38220    0.38220    0.44780   1.00
Zn1      0.44780    0.44780    0.44780   1.00
O2       0.43850    0.39150    0.32680   1.00
O2       0.43850    0.32680    0.39150   1.00
O2       0.50320    0.39150    0.39150   1.00
O2       0.39150    0.43850    0.32680   1.00
O2       0.32680    0.43850    0.39150   1.00
O2       0.39150    0.50320    0.39150   1.00
O2       0.39150    0.32680    0.43850   1.00
O2       0.32680    0.39150    0.43850   1.00
O2       0.39150    0.39150    0.50320   1.00
O2       0.50320    0.43850    0.43850   1.00
O2       0.43850    0.50320    0.43850   1.00
O2       0.43850    0.43850    0.50320   1.00
C1       0.41500    0.41500    0.30980   1.00
C1       0.41500    0.30980    0.41500   1.00
C1       0.52020    0.41500    0.41500   1.00
C1       0.30980    0.41500    0.41500   1.00
C1       0.41500    0.52020    0.41500   1.00
C1       0.41500    0.41500    0.52020   1.00
O1       0.91500    0.91500    0.41500   1.00
Zn1      0.94780    0.88220    0.38220   1.00
Zn1      0.88220    0.94780    0.38220   1.00
Zn1      0.88220    0.88220    0.44780   1.00
Zn1      0.94780    0.94780    0.44780   1.00
O2       0.93850    0.89150    0.32680   1.00
O2       0.93850    0.82680    0.39150   1.00
O2       1.00320    0.89150    0.39150   1.00
O2       0.89150    0.93850    0.32680   1.00
O2       0.82680    0.93850    0.39150   1.00
O2       0.89150    1.00320    0.39150   1.00
O2       0.89150    0.82680    0.43850   1.00
O2       0.82680    0.89150    0.43850   1.00
O2       0.89150    0.89150    0.50320   1.00
O2       1.00320    0.93850    0.43850   1.00
O2       0.93850    1.00320    0.43850   1.00
O2       0.93850    0.93850    0.50320   1.00
C1       0.91500    0.91500    0.30980   1.00
C1       0.91500    0.80980    0.41500   1.00
C1       1.02020    0.91500    0.41500   1.00
C1       0.80980    0.91500    0.41500   1.00
C1       0.91500    1.02020    0.41500   1.00
C1       0.91500    0.91500    0.52020   1.00
O1       0.91500    0.41500    0.91500   1.00
Zn1      0.94780    0.38220    0.88220   1.00
Zn1      0.88220    0.44780    0.88220   1.00
Zn1      0.88220    0.38220    0.94780   1.00
Zn1      0.94780    0.44780    0.94780   1.00
O2       0.93850    0.39150    0.82680   1.00
O2       0.93850    0.32680    0.89150   1.00
O2       1.00320    0.39150    0.89150   1.00
O2       0.89150    0.43850    0.82680   1.00
O2       0.82680    0.43850    0.89150   1.00
O2       0.89150    0.50320    0.89150   1.00
O2       0.89150    0.32680    0.93850   1.00
O2       0.82680    0.39150    0.93850   1.00
O2       0.89150    0.39150    1.00320   1.00
O2       1.00320    0.43850    0.93850   1.00
O2       0.93850    0.50320    0.93850   1.00
O2       0.93850    0.43850    1.00320   1.00
C1       0.91500    0.41500    0.80980   1.00
C1       0.91500    0.30980    0.91500   1.00
C1       1.02020    0.41500    0.91500   1.00
C1       0.80980    0.41500    0.91500   1.00
C1       0.91500    0.52020    0.91500   1.00
C1       0.91500    0.41500    1.02020   1.00
O1       0.41500    0.91500    0.91500   1.00
Zn1      0.44780    0.88220    0.88220   1.00
Zn1      0.38220    0.94780    0.88220   1.00
Zn1      0.38220    0.88220    0.94780   1.00
Zn1      0.44780    0.94780    0.94780   1.00
O2       0.43850    0.89150    0.82680   1.00
O2       0.43850    0.82680    0.89150   1.00
O2       0.50320    0.89150    0.89150   1.00
O2       0.39150    0.93850    0.82680   1.00
O2       0.32680    0.93850    0.89150   1.00
O2       0.39150    1.00320    0.89150   1.00
O2       0.39150    0.82680    0.93850   1.00
O2       0.32680    0.89150    0.93850   1.00
O2       0.39150    0.89150    1.00320   1.00
O2       0.50320    0.93850    0.93850   1.00
O2       0.43850    1.00320    0.93850   1.00
O2       0.43850    0.93850    1.00320   1.00
C1       0.41500    0.91500    0.80980   1.00
C1       0.41500    0.80980    0.91500   1.00
C1       0.52020    0.91500    0.91500   1.00
C1       0.30980    0.91500    0.91500   1.00
C1       0.41500    1.02020    0.91500   1.00
C1       0.41500    0.91500    1.02020   1.00
C5       0.86715    0.79848    1.13218   1.00
H2       0.84776    0.81946    1.14745   1.00
H2       0.88418    0.81603    1.11090   1.00
C5       0.89459    0.77900    1.16194   1.00
C5       0.92955    0.80564    1.17123   1.00
H2       0.90559    0.75081    1.15015   1.00
O3       0.78786    0.69015    0.98000   1.00
C4       0.74962    0.75018    1.02100   1.00
C3c      0.77877    0.76943    1.04243   1.00
H1       0.80178    0.78476    1.02725   1.00
C3d      0.71959    0.73086    1.04135   1.00
C3       0.77908    0.76879    1.08354   1.00
O2       0.80568    0.79216    1.10248   1.00
C3       0.72022    0.72953    1.08227   1.00
H1       0.69735    0.71319    1.09657   1.00
C2       0.74972    0.74848    1.10439   1.00
C5       0.76594    0.65528    0.97879   1.00
H2       0.76137    0.64468    0.94838   1.00
H2       0.73675    0.65930    0.99266   1.00
C5       0.78861    0.62432    1.00129   1.00
H2       0.79413    0.63538    1.03137   1.00
H2       0.81754    0.62029    0.98698   1.00
C5       0.76600    0.58553    1.00262   1.00
H2       0.76014    0.57445    0.97268   1.00
H2       0.73770    0.58922    1.01811   1.00
C5       0.79002    0.55447    1.02445   1.00
C5       0.66037    0.73326    1.01105   1.00
C5       0.83991    0.77063    1.11070   1.00
H2       0.66992    0.75683    0.99088   1.00
H2       0.64640    0.74687    1.03712   1.00
H2       0.85368    0.76047    1.08300   1.00
H2       0.83398    0.74421    1.12895   1.00
H2       0.87938    0.77361    1.19030   1.00
H2       0.61344    0.74761    0.94247   1.00
H2       0.58647    0.75449    0.98763   1.00
C2       0.74953    0.74736    0.89605   1.00
C3       0.73196    0.77885    0.91597   1.00
O2       0.70657    0.80347    0.89674   1.00
C3       0.76858    0.71823    0.91826   1.00
H1       0.78318    0.69428    0.90385   1.00
C3a      0.73289    0.78002    0.95713   1.00
H1       0.71739    0.80312    0.97202   1.00
C3b      0.76838    0.71882    0.95922   1.00
C4       0.75038    0.74982    0.97900   1.00
O3       0.69190    0.70901    1.02167   1.00
C5       0.72546    0.83879    0.88720   1.00
H2       0.73630    0.85399    0.91391   1.00
C5       0.69546    0.86449    0.86674   1.00
H2       0.75061    0.83353    0.86726   1.00
H2       0.67646    0.87809    0.88932   1.00
H2       0.67637    0.84500    0.84907   1.00
C5       0.71420    0.89604    0.84082   1.00
H2       0.73547    0.91324    0.85824   1.00
C5       0.68296    0.92391    0.82453   1.00
H2       0.72931    0.88286    0.81507   1.00
C5       0.63039    0.70788    0.99017   1.00
H2       0.61599    0.68875    1.01215   1.00
H2       0.64619    0.68836    0.96952   1.00
C5       0.60002    0.73246    0.96800   1.00
C5       0.56738    0.70592    0.95225   1.00
H2       0.92018    0.82910    1.19286   1.00
H2       0.95409    0.78751    1.18447   1.00
H2       0.94027    0.82003    1.14323   1.00
H2       0.77076    0.52817    1.03105   1.00
H2       0.81565    0.54495    1.00551   1.00
H2       0.80144    0.56728    1.05293   1.00
H2       0.69156    0.93350    0.79387   1.00
H2       0.65363    0.90827    0.82344   1.00
H2       0.68055    0.95060    0.84423   1.00
H2       0.57605    0.67407    0.95634   1.00
H2       0.53920    0.71196    0.96884   1.00
H2       0.56273    0.71207    0.91990   1.00
C5       0.79848    1.13218    0.86715   1.00
H2       0.81946    1.14745    0.84776   1.00
H2       0.81603    1.11090    0.88418   1.00
C5       0.77900    1.16194    0.89459   1.00
C5       0.80564    1.17123    0.92955   1.00
H2       0.75081    1.15015    0.90559   1.00
O3       0.69015    0.98000    0.78786   1.00
C4       0.75018    1.02100    0.74962   1.00
C3c      0.76943    1.04243    0.77877   1.00
H1       0.78476    1.02725    0.80178   1.00
C3d      0.73086    1.04135    0.71959   1.00
C3       0.76879    1.08354    0.77908   1.00
O2       0.79216    1.10248    0.80568   1.00
C3       0.72953    1.08227    0.72022   1.00
H1       0.71319    1.09657    0.69735   1.00
C2       0.74848    1.10439    0.74972   1.00
C5       0.65528    0.97879    0.76594   1.00
H2       0.64468    0.94838    0.76137   1.00
H2       0.65930    0.99266    0.73675   1.00
C5       0.62432    1.00129    0.78861   1.00
H2       0.63538    1.03137    0.79413   1.00
H2       0.62029    0.98698    0.81754   1.00
C5       0.58553    1.00262    0.76600   1.00
H2       0.57445    0.97268    0.76014   1.00
H2       0.58922    1.01811    0.73770   1.00
C5       0.55447    1.02445    0.79002   1.00
C5       0.73326    1.01105    0.66037   1.00
C5       0.77063    1.11070    0.83991   1.00
H2       0.75683    0.99088    0.66992   1.00
H2       0.74687    1.03712    0.64640   1.00
H2       0.76047    1.08300    0.85368   1.00
H2       0.74421    1.12895    0.83398   1.00
H2       0.77361    1.19030    0.87938   1.00
H2       0.74761    0.94247    0.61344   1.00
H2       0.75449    0.98763    0.58647   1.00
C2       0.74736    0.89605    0.74953   1.00
C3       0.77885    0.91597    0.73196   1.00
O2       0.80347    0.89674    0.70657   1.00
C3       0.71823    0.91826    0.76858   1.00
H1       0.69428    0.90385    0.78318   1.00
C3a      0.78002    0.95713    0.73289   1.00
H1       0.80312    0.97202    0.71739   1.00
C3b      0.71882    0.95922    0.76838   1.00
C4       0.74982    0.97900    0.75038   1.00
O3       0.70901    1.02167    0.69190   1.00
C5       0.83879    0.88720    0.72546   1.00
H2       0.85399    0.91391    0.73630   1.00
C5       0.86449    0.86674    0.69546   1.00
H2       0.83353    0.86726    0.75061   1.00
H2       0.87809    0.88932    0.67646   1.00
H2       0.84500    0.84907    0.67637   1.00
C5       0.89604    0.84082    0.71420   1.00
H2       0.91324    0.85824    0.73547   1.00
C5       0.92391    0.82453    0.68296   1.00
H2       0.88286    0.81507    0.72931   1.00
C5       0.70788    0.99017    0.63039   1.00
H2       0.68875    1.01215    0.61599   1.00
H2       0.68836    0.96952    0.64619   1.00
C5       0.73246    0.96800    0.60002   1.00
C5       0.70592    0.95225    0.56738   1.00
H2       0.82910    1.19286    0.92018   1.00
H2       0.78751    1.18447    0.95409   1.00
H2       0.82003    1.14323    0.94027   1.00
H2       0.52817    1.03105    0.77076   1.00
H2       0.54495    1.00551    0.81565   1.00
H2       0.56728    1.05293    0.80144   1.00
H2       0.93350    0.79387    0.69156   1.00
H2       0.90827    0.82344    0.65363   1.00
H2       0.95060    0.84423    0.68055   1.00
H2       0.67407    0.95634    0.57605   1.00
H2       0.71196    0.96884    0.53920   1.00
H2       0.71207    0.91990    0.56273   1.00
C5       0.36782    0.86715    0.70152   1.00
H2       0.35255    0.84776    0.68054   1.00
H2       0.38910    0.88418    0.68397   1.00
C5       0.33806    0.89459    0.72100   1.00
C5       0.32877    0.92955    0.69436   1.00
H2       0.34985    0.90559    0.74919   1.00
O3       0.52000    0.78786    0.80985   1.00
C4       0.47900    0.74962    0.74982   1.00
C3c      0.45757    0.77877    0.73057   1.00
H1       0.47275    0.80178    0.71524   1.00
C3d      0.45865    0.71959    0.76914   1.00
C3       0.41646    0.77908    0.73121   1.00
O2       0.39752    0.80568    0.70784   1.00
C3       0.41773    0.72022    0.77047   1.00
H1       0.40343    0.69735    0.78681   1.00
C2       0.39561    0.74972    0.75152   1.00
C5       0.52121    0.76594    0.84472   1.00
H2       0.55162    0.76137    0.85532   1.00
H2       0.50734    0.73675    0.84070   1.00
C5       0.49871    0.78861    0.87568   1.00
H2       0.46863    0.79413    0.86462   1.00
H2       0.51302    0.81754    0.87971   1.00
C5       0.49738    0.76600    0.91447   1.00
H2       0.52732    0.76014    0.92555   1.00
H2       0.48189    0.73770    0.91078   1.00
C5       0.47555    0.79002    0.94553   1.00
C5       0.48895    0.66037    0.76674   1.00
C5       0.38930    0.83991    0.72937   1.00
H2       0.50912    0.66992    0.74317   1.00
H2       0.46288    0.64640    0.75313   1.00
H2       0.41700    0.85368    0.73953   1.00
H2       0.37105    0.83398    0.75579   1.00
H2       0.30970    0.87938    0.72639   1.00
H2       0.55753    0.61344    0.75239   1.00
H2       0.51237    0.58647    0.74551   1.00
C2       0.60395    0.74953    0.75264   1.00
C3       0.58403    0.73196    0.72115   1.00
O2       0.60326    0.70657    0.69653   1.00
C3       0.58174    0.76858    0.78177   1.00
H1       0.59615    0.78318    0.80572   1.00
C3a      0.54287    0.73289    0.71998   1.00
H1       0.52798    0.71739    0.69688   1.00
C3b      0.54078    0.76838    0.78118   1.00
C4       0.52100    0.75038    0.75018   1.00
O3       0.47833    0.69190    0.79099   1.00
C5       0.61280    0.72546    0.66121   1.00
H2       0.58609    0.73630    0.64601   1.00
C5       0.63326    0.69546    0.63551   1.00
H2       0.63274    0.75061    0.66647   1.00
H2       0.61068    0.67646    0.62191   1.00
H2       0.65093    0.67637    0.65500   1.00
C5       0.65918    0.71420    0.60396   1.00
H2       0.64176    0.73547    0.58676   1.00
C5       0.67547    0.68296    0.57609   1.00
H2       0.68493    0.72931    0.61714   1.00
C5       0.50983    0.63039    0.79212   1.00
H2       0.48785    0.61599    0.81125   1.00
H2       0.53048    0.64619    0.81164   1.00
C5       0.53200    0.60002    0.76754   1.00
C5       0.54775    0.56738    0.79408   1.00
H2       0.30714    0.92018    0.67090   1.00
H2       0.31553    0.95409    0.71249   1.00
H2       0.35677    0.94027    0.67997   1.00
H2       0.46895    0.77076    0.97183   1.00
H2       0.49449    0.81565    0.95505   1.00
H2       0.44707    0.80144    0.93272   1.00
H2       0.70613    0.69156    0.56650   1.00
H2       0.67656    0.65363    0.59173   1.00
H2       0.65577    0.68055    0.54940   1.00
H2       0.54366    0.57605    0.82593   1.00
H2       0.53116    0.53920    0.78804   1.00
H2       0.58010    0.56273    0.78793   1.00
C5       1.13218    0.86715    0.79848   1.00
H2       1.14745    0.84776    0.81946   1.00
H2       1.11090    0.88418    0.81603   1.00
C5       1.16194    0.89459    0.77900   1.00
C5       1.17123    0.92955    0.80564   1.00
H2       1.15015    0.90559    0.75081   1.00
O3       0.98000    0.78786    0.69015   1.00
C4       1.02100    0.74962    0.75018   1.00
C3c      1.04243    0.77877    0.76943   1.00
H1       1.02725    0.80178    0.78476   1.00
C3d      1.04135    0.71959    0.73086   1.00
C3       1.08354    0.77908    0.76879   1.00
O2       1.10248    0.80568    0.79216   1.00
C3       1.08227    0.72022    0.72953   1.00
H1       1.09657    0.69735    0.71319   1.00
C2       1.10439    0.74972    0.74848   1.00
C5       0.97879    0.76594    0.65528   1.00
H2       0.94838    0.76137    0.64468   1.00
H2       0.99266    0.73675    0.65930   1.00
C5       1.00129    0.78861    0.62432   1.00
H2       1.03137    0.79413    0.63538   1.00
H2       0.98698    0.81754    0.62029   1.00
C5       1.00262    0.76600    0.58553   1.00
H2       0.97268    0.76014    0.57445   1.00
H2       1.01811    0.73770    0.58922   1.00
C5       1.02445    0.79002    0.55447   1.00
C5       1.01105    0.66037    0.73326   1.00
C5       1.11070    0.83991    0.77063   1.00
H2       0.99088    0.66992    0.75683   1.00
H2       1.03712    0.64640    0.74687   1.00
H2       1.08300    0.85368    0.76047   1.00
H2       1.12895    0.83398    0.74421   1.00
H2       1.19030    0.87938    0.77361   1.00
H2       0.94247    0.61344    0.74761   1.00
H2       0.98763    0.58647    0.75449   1.00
C2       0.89605    0.74953    0.74736   1.00
C3       0.91597    0.73196    0.77885   1.00
O2       0.89674    0.70657    0.80347   1.00
C3       0.91826    0.76858    0.71823   1.00
H1       0.90385    0.78318    0.69428   1.00
C3a      0.95713    0.73289    0.78002   1.00
H1       0.97202    0.71739    0.80312   1.00
C3b      0.95922    0.76838    0.71882   1.00
C4       0.97900    0.75038    0.74982   1.00
O3       1.02167    0.69190    0.70901   1.00
C5       0.88720    0.72546    0.83879   1.00
H2       0.91391    0.73630    0.85399   1.00
C5       0.86674    0.69546    0.86449   1.00
H2       0.86726    0.75061    0.83353   1.00
H2       0.88932    0.67646    0.87809   1.00
H2       0.84907    0.67637    0.84500   1.00
C5       0.84082    0.71420    0.89604   1.00
H2       0.85824    0.73547    0.91324   1.00
C5       0.82453    0.68296    0.92391   1.00
H2       0.81507    0.72931    0.88286   1.00
C5       0.99017    0.63039    0.70788   1.00
H2       1.01215    0.61599    0.68875   1.00
H2       0.96952    0.64619    0.68836   1.00
C5       0.96800    0.60002    0.73246   1.00
C5       0.95225    0.56738    0.70592   1.00
H2       1.19286    0.92018    0.82910   1.00
H2       1.18447    0.95409    0.78751   1.00
H2       1.14323    0.94027    0.82003   1.00
H2       1.03105    0.77076    0.52817   1.00
H2       1.00551    0.81565    0.54495   1.00
H2       1.05293    0.80144    0.56728   1.00
H2       0.79387    0.69156    0.93350   1.00
H2       0.82344    0.65363    0.90827   1.00
H2       0.84423    0.68055    0.95060   1.00
H2       0.95634    0.57605    0.67407   1.00
H2       0.96884    0.53920    0.71196   1.00
H2       0.91990    0.56273    0.71207   1.00
C5       0.70152    0.36782    0.86715   1.00
H2       0.68054    0.35255    0.84776   1.00
H2       0.68397    0.38910    0.88418   1.00
C5       0.72100    0.33806    0.89459   1.00
C5       0.69436    0.32877    0.92955   1.00
H2       0.74919    0.34985    0.90559   1.00
O3       0.80985    0.52000    0.78786   1.00
C4       0.74982    0.47900    0.74962   1.00
C3c      0.73057    0.45757    0.77877   1.00
H1       0.71524    0.47275    0.80178   1.00
C3d      0.76914    0.45865    0.71959   1.00
C3       0.73121    0.41646    0.77908   1.00
O2       0.70784    0.39752    0.80568   1.00
C3       0.77047    0.41773    0.72022   1.00
H1       0.78681    0.40343    0.69735   1.00
C2       0.75152    0.39561    0.74972   1.00
C5       0.84472    0.52121    0.76594   1.00
H2       0.85532    0.55162    0.76137   1.00
H2       0.84070    0.50734    0.73675   1.00
C5       0.87568    0.49871    0.78861   1.00
H2       0.86462    0.46863    0.79413   1.00
H2       0.87971    0.51302    0.81754   1.00
C5       0.91447    0.49738    0.76600   1.00
H2       0.92555    0.52732    0.76014   1.00
H2       0.91078    0.48189    0.73770   1.00
C5       0.94553    0.47555    0.79002   1.00
C5       0.76674    0.48895    0.66037   1.00
C5       0.72937    0.38930    0.83991   1.00
H2       0.74317    0.50912    0.66992   1.00
H2       0.75313    0.46288    0.64640   1.00
H2       0.73953    0.41700    0.85368   1.00
H2       0.75579    0.37105    0.83398   1.00
H2       0.72639    0.30970    0.87938   1.00
H2       0.75239    0.55753    0.61344   1.00
H2       0.74551    0.51237    0.58647   1.00
C2       0.75264    0.60395    0.74953   1.00
C3       0.72115    0.58403    0.73196   1.00
O2       0.69653    0.60326    0.70657   1.00
C3       0.78177    0.58174    0.76858   1.00
H1       0.80572    0.59615    0.78318   1.00
C3a      0.71998    0.54287    0.73289   1.00
H1       0.69688    0.52798    0.71739   1.00
C3b      0.78118    0.54078    0.76838   1.00
C4       0.75018    0.52100    0.75038   1.00
O3       0.79099    0.47833    0.69190   1.00
C5       0.66121    0.61280    0.72546   1.00
H2       0.64601    0.58609    0.73630   1.00
C5       0.63551    0.63326    0.69546   1.00
H2       0.66647    0.63274    0.75061   1.00
H2       0.62191    0.61068    0.67646   1.00
H2       0.65500    0.65093    0.67637   1.00
C5       0.60396    0.65918    0.71420   1.00
H2       0.58676    0.64176    0.73547   1.00
C5       0.57609    0.67547    0.68296   1.00
H2       0.61714    0.68493    0.72931   1.00
C5       0.79212    0.50983    0.63039   1.00
H2       0.81125    0.48785    0.61599   1.00
H2       0.81164    0.53048    0.64619   1.00
C5       0.76754    0.53200    0.60002   1.00
C5       0.79408    0.54775    0.56738   1.00
H2       0.67090    0.30714    0.92018   1.00
H2       0.71249    0.31553    0.95409   1.00
H2       0.67997    0.35677    0.94027   1.00
H2       0.97183    0.46895    0.77076   1.00
H2       0.95505    0.49449    0.81565   1.00
H2       0.93272    0.44707    0.80144   1.00
H2       0.56650    0.70613    0.69156   1.00
H2       0.59173    0.67656    0.65363   1.00
H2       0.54940    0.65577    0.68055   1.00
H2       0.82593    0.54366    0.57605   1.00
H2       0.78804    0.53116    0.53920   1.00
H2       0.78793    0.58010    0.56273   1.00
C5       0.86715    0.70152    0.36782   1.00
H2       0.84776    0.68054    0.35255   1.00
H2       0.88418    0.68397    0.38910   1.00
C5       0.89459    0.72100    0.33806   1.00
C5       0.92955    0.69436    0.32877   1.00
H2       0.90559    0.74919    0.34985   1.00
O3       0.78786    0.80985    0.52000   1.00
C4       0.74962    0.74982    0.47900   1.00
C3c      0.77877    0.73057    0.45757   1.00
H1       0.80178    0.71524    0.47275   1.00
C3d      0.71959    0.76914    0.45865   1.00
C3       0.77908    0.73121    0.41646   1.00
O2       0.80568    0.70784    0.39752   1.00
C3       0.72022    0.77047    0.41773   1.00
H1       0.69735    0.78681    0.40343   1.00
C2       0.74972    0.75152    0.39561   1.00
C5       0.76594    0.84472    0.52121   1.00
H2       0.76137    0.85532    0.55162   1.00
H2       0.73675    0.84070    0.50734   1.00
C5       0.78861    0.87568    0.49871   1.00
H2       0.79413    0.86462    0.46863   1.00
H2       0.81754    0.87971    0.51302   1.00
C5       0.76600    0.91447    0.49738   1.00
H2       0.76014    0.92555    0.52732   1.00
H2       0.73770    0.91078    0.48189   1.00
C5       0.79002    0.94553    0.47555   1.00
C5       0.66037    0.76674    0.48895   1.00
C5       0.83991    0.72937    0.38930   1.00
H2       0.66992    0.74317    0.50912   1.00
H2       0.64640    0.75313    0.46288   1.00
H2       0.85368    0.73953    0.41700   1.00
H2       0.83398    0.75579    0.37105   1.00
H2       0.87938    0.72639    0.30970   1.00
H2       0.61344    0.75239    0.55753   1.00
H2       0.58647    0.74551    0.51237   1.00
C2       0.74953    0.75264    0.60395   1.00
C3       0.73196    0.72115    0.58403   1.00
O2       0.70657    0.69653    0.60326   1.00
C3       0.76858    0.78177    0.58174   1.00
H1       0.78318    0.80572    0.59615   1.00
C3a      0.73289    0.71998    0.54287   1.00
H1       0.71739    0.69688    0.52798   1.00
C3b      0.76838    0.78118    0.54078   1.00
C4       0.75038    0.75018    0.52100   1.00
O3       0.69190    0.79099    0.47833   1.00
C5       0.72546    0.66121    0.61280   1.00
H2       0.73630    0.64601    0.58609   1.00
C5       0.69546    0.63551    0.63326   1.00
H2       0.75061    0.66647    0.63274   1.00
H2       0.67646    0.62191    0.61068   1.00
H2       0.67637    0.65500    0.65093   1.00
C5       0.71420    0.60396    0.65918   1.00
H2       0.73547    0.58676    0.64176   1.00
C5       0.68296    0.57609    0.67547   1.00
H2       0.72931    0.61714    0.68493   1.00
C5       0.63039    0.79212    0.50983   1.00
H2       0.61599    0.81125    0.48785   1.00
H2       0.64619    0.81164    0.53048   1.00
C5       0.60002    0.76754    0.53200   1.00
C5       0.56738    0.79408    0.54775   1.00
H2       0.92018    0.67090    0.30714   1.00
H2       0.95409    0.71249    0.31553   1.00
H2       0.94027    0.67997    0.35677   1.00
H2       0.77076    0.97183    0.46895   1.00
H2       0.81565    0.95505    0.49449   1.00
H2       0.80144    0.93272    0.44707   1.00
H2       0.69156    0.56650    0.70613   1.00
H2       0.65363    0.59173    0.67656   1.00
H2       0.68055    0.54940    0.65577   1.00
H2       0.57605    0.82593    0.54366   1.00
H2       0.53920    0.78804    0.53116   1.00
H2       0.56273    0.78793    0.58010   1.00
C5       0.36715    0.29848    1.13218   1.00
H2       0.34776    0.31946    1.14745   1.00
H2       0.38418    0.31603    1.11090   1.00
C5       0.39459    0.27900    1.16194   1.00
C5       0.42955    0.30564    1.17123   1.00
H2       0.40559    0.25081    1.15015   1.00
O3       0.28786    0.19015    0.98000   1.00
C4       0.24962    0.25018    1.02100   1.00
C3c      0.27877    0.26943    1.04243   1.00
H1       0.30178    0.28476    1.02725   1.00
C3d      0.21959    0.23086    1.04135   1.00
C3       0.27908    0.26879    1.08354   1.00
O2       0.30568    0.29216    1.10248   1.00
C3       0.22022    0.22953    1.08227   1.00
H1       0.19735    0.21319    1.09657   1.00
C2       0.24972    0.24848    1.10439   1.00
C5       0.26594    0.15528    0.97879   1.00
H2       0.26137    0.14468    0.94838   1.00
H2       0.23675    0.15930    0.99266   1.00
C5       0.28861    0.12432    1.00129   1.00
H2       0.29413    0.13538    1.03137   1.00
H2       0.31754    0.12029    0.98698   1.00
C5       0.26600    0.08553    1.00262   1.00
H2       0.26014    0.07445    0.97268   1.00
H2       0.23770    0.08922    1.01811   1.00
C5       0.29002    0.05447    1.02445   1.00
C5       0.16037    0.23326    1.01105   1.00
C5       0.33991    0.27063    1.11070   1.00
H2       0.16992    0.25683    0.99088   1.00
H2       0.14640    0.24687    1.03712   1.00
H2       0.35368    0.26047    1.08300   1.00
H2       0.33398    0.24421    1.12895   1.00
H2       0.37938    0.27361    1.19030   1.00
H2       0.11344    0.24761    0.94247   1.00
H2       0.08647    0.25449    0.98763   1.00
C2       0.24953    0.24736    0.89605   1.00
C3       0.23196    0.27885    0.91597   1.00
O2       0.20657    0.30347    0.89674   1.00
C3       0.26858    0.21823    0.91826   1.00
H1       0.28318    0.19428    0.90385   1.00
C3a      0.23289    0.28002    0.95713   1.00
H1       0.21739    0.30312    0.97202   1.00
C3b      0.26838    0.21882    0.95922   1.00
C4       0.25038    0.24982    0.97900   1.00
O3       0.19190    0.20901    1.02167   1.00
C5       0.22546    0.33879    0.88720   1.00
H2       0.23630    0.35399    0.91391   1.00
C5       0.19546    0.36449    0.86674   1.00
H2       0.25061    0.33353    0.86726   1.00
H2       0.17646    0.37809    0.88932   1.00
H2       0.17637    0.34500    0.84907   1.00
C5       0.21420    0.39604    0.84082   1.00
H2       0.23547    0.41324    0.85824   1.00
C5       0.18296    0.42391    0.82453   1.00
H2       0.22931    0.38286    0.81507   1.00
C5       0.13039    0.20788    0.99017   1.00
H2       0.11599    0.18875    1.01215   1.00
H2       0.14619    0.18836    0.96952   1.00
C5       0.10002    0.23246    0.96800   1.00
C5       0.06738    0.20592    0.95225   1.00
H2       0.42018    0.32910    1.19286   1.00
H2       0.45409    0.28751    1.18447   1.00
H2       0.44027    0.32003    1.14323   1.00
H2       0.27076    0.02817    1.03105   1.00
H2       0.31565    0.04495    1.00551   1.00
H2       0.30144    0.06728    1.05293   1.00
H2       0.19156    0.43350    0.79387   1.00
H2       0.15363    0.40827    0.82344   1.00
H2       0.18055    0.45060    0.84423   1.00
H2       0.07605    0.17407    0.95634   1.00
H2       0.03920    0.21196    0.96884   1.00
H2       0.06273    0.21207    0.91990   1.00
C5       0.29848    0.63218    0.86715   1.00
H2       0.31946    0.64745    0.84776   1.00
H2       0.31603    0.61090    0.88418   1.00
C5       0.27900    0.66194    0.89459   1.00
C5       0.30564    0.67123    0.92955   1.00
H2       0.25081    0.65015    0.90559   1.00
O3       0.19015    0.48000    0.78786   1.00
C4       0.25018    0.52100    0.74962   1.00
C3c      0.26943    0.54243    0.77877   1.00
H1       0.28476    0.52725    0.80178   1.00
C3d      0.23086    0.54135    0.71959   1.00
C3       0.26879    0.58354    0.77908   1.00
O2       0.29216    0.60248    0.80568   1.00
C3       0.22953    0.58227    0.72022   1.00
H1       0.21319    0.59657    0.69735   1.00
C2       0.24848    0.60439    0.74972   1.00
C5       0.15528    0.47879    0.76594   1.00
H2       0.14468    0.44838    0.76137   1.00
H2       0.15930    0.49266    0.73675   1.00
C5       0.12432    0.50129    0.78861   1.00
H2       0.13538    0.53137    0.79413   1.00
H2       0.12029    0.48698    0.81754   1.00
C5       0.08553    0.50262    0.76600   1.00
H2       0.07445    0.47268    0.76014   1.00
H2       0.08922    0.51811    0.73770   1.00
C5       0.05447    0.52445    0.79002   1.00
C5       0.23326    0.51105    0.66037   1.00
C5       0.27063    0.61070    0.83991   1.00
H2       0.25683    0.49088    0.66992   1.00
H2       0.24687    0.53712    0.64640   1.00
H2       0.26047    0.58300    0.85368   1.00
H2       0.24421    0.62895    0.83398   1.00
H2       0.27361    0.69030    0.87938   1.00
H2       0.24761    0.44247    0.61344   1.00
H2       0.25449    0.48763    0.58647   1.00
C2       0.24736    0.39605    0.74953   1.00
C3       0.27885    0.41597    0.73196   1.00
O2       0.30347    0.39674    0.70657   1.00
C3       0.21823    0.41826    0.76858   1.00
H1       0.19428    0.40385    0.78318   1.00
C3a      0.28002    0.45713    0.73289   1.00
H1       0.30312    0.47202    0.71739   1.00
C3b      0.21882    0.45922    0.76838   1.00
C4       0.24982    0.47900    0.75038   1.00
O3       0.20901    0.52167    0.69190   1.00
C5       0.33879    0.38720    0.72546   1.00
H2       0.35399    0.41391    0.73630   1.00
C5       0.36449    0.36674    0.69546   1.00
H2       0.33353    0.36726    0.75061   1.00
H2       0.37809    0.38932    0.67646   1.00
H2       0.34500    0.34907    0.67637   1.00
C5       0.39604    0.34082    0.71420   1.00
H2       0.41324    0.35824    0.73547   1.00
C5       0.42391    0.32453    0.68296   1.00
H2       0.38286    0.31507    0.72931   1.00
C5       0.20788    0.49017    0.63039   1.00
H2       0.18875    0.51215    0.61599   1.00
H2       0.18836    0.46952    0.64619   1.00
C5       0.23246    0.46800    0.60002   1.00
C5       0.20592    0.45225    0.56738   1.00
H2       0.32910    0.69286    0.92018   1.00
H2       0.28751    0.68447    0.95409   1.00
H2       0.32003    0.64323    0.94027   1.00
H2       0.02817    0.53105    0.77076   1.00
H2       0.04495    0.50551    0.81565   1.00
H2       0.06728    0.55293    0.80144   1.00
H2       0.43350    0.29387    0.69156   1.00
H2       0.40827    0.32344    0.65363   1.00
H2       0.45060    0.34423    0.68055   1.00
H2       0.17407    0.45634    0.57605   1.00
H2       0.21196    0.46884    0.53920   1.00
H2       0.21207    0.41990    0.56273   1.00
C5       -0.13218   0.36715    0.70152   1.00
H2       -0.14745   0.34776    0.68054   1.00
H2       -0.11090   0.38418    0.68397   1.00
C5       -0.16194   0.39459    0.72100   1.00
C5       -0.17123   0.42955    0.69436   1.00
H2       -0.15015   0.40559    0.74919   1.00
O3       0.02000    0.28786    0.80985   1.00
C4       -0.02100   0.24962    0.74982   1.00
C3c      -0.04243   0.27877    0.73057   1.00
H1       -0.02725   0.30178    0.71524   1.00
C3d      -0.04135   0.21959    0.76914   1.00
C3       -0.08354   0.27908    0.73121   1.00
O2       -0.10248   0.30568    0.70784   1.00
C3       -0.08227   0.22022    0.77047   1.00
H1       -0.09657   0.19735    0.78681   1.00
C2       -0.10439   0.24972    0.75152   1.00
C5       0.02121    0.26594    0.84472   1.00
H2       0.05162    0.26137    0.85532   1.00
H2       0.00734    0.23675    0.84070   1.00
C5       -0.00129   0.28861    0.87568   1.00
H2       -0.03137   0.29413    0.86462   1.00
H2       0.01302    0.31754    0.87971   1.00
C5       -0.00262   0.26600    0.91447   1.00
H2       0.02732    0.26014    0.92555   1.00
H2       -0.01811   0.23770    0.91078   1.00
C5       -0.02445   0.29002    0.94553   1.00
C5       -0.01105   0.16037    0.76674   1.00
C5       -0.11070   0.33991    0.72937   1.00
H2       0.00912    0.16992    0.74317   1.00
H2       -0.03712   0.14640    0.75313   1.00
H2       -0.08300   0.35368    0.73953   1.00
H2       -0.12895   0.33398    0.75579   1.00
H2       -0.19030   0.37938    0.72639   1.00
H2       0.05753    0.11344    0.75239   1.00
H2       0.01237    0.08647    0.74551   1.00
C2       0.10395    0.24953    0.75264   1.00
C3       0.08403    0.23196    0.72115   1.00
O2       0.10326    0.20657    0.69653   1.00
C3       0.08174    0.26858    0.78177   1.00
H1       0.09615    0.28318    0.80572   1.00
C3a      0.04287    0.23289    0.71998   1.00
H1       0.02798    0.21739    0.69688   1.00
C3b      0.04078    0.26838    0.78118   1.00
C4       0.02100    0.25038    0.75018   1.00
O3       -0.02167   0.19190    0.79099   1.00
C5       0.11280    0.22546    0.66121   1.00
H2       0.08609    0.23630    0.64601   1.00
C5       0.13326    0.19546    0.63551   1.00
H2       0.13274    0.25061    0.66647   1.00
H2       0.11068    0.17646    0.62191   1.00
H2       0.15093    0.17637    0.65500   1.00
C5       0.15918    0.21420    0.60396   1.00
H2       0.14176    0.23547    0.58676   1.00
C5       0.17547    0.18296    0.57609   1.00
H2       0.18493    0.22931    0.61714   1.00
C5       0.00983    0.13039    0.79212   1.00
H2       -0.01215   0.11599    0.81125   1.00
H2       0.03048    0.14619    0.81164   1.00
C5       0.03200    0.10002    0.76754   1.00
C5       0.04775    0.06738    0.79408   1.00
H2       -0.19286   0.42018    0.67090   1.00
H2       -0.18447   0.45409    0.71249   1.00
H2       -0.14323   0.44027    0.67997   1.00
H2       -0.03105   0.27076    0.97183   1.00
H2       -0.00551   0.31565    0.95505   1.00
H2       -0.05293   0.30144    0.93272   1.00
H2       0.20613    0.19156    0.56650   1.00
H2       0.17656    0.15363    0.59173   1.00
H2       0.15577    0.18055    0.54940   1.00
H2       0.04366    0.07605    0.82593   1.00
H2       0.03116    0.03920    0.78804   1.00
H2       0.08010    0.06273    0.78793   1.00
C5       0.63218    0.36715    0.79848   1.00
H2       0.64745    0.34776    0.81946   1.00
H2       0.61090    0.38418    0.81603   1.00
C5       0.66194    0.39459    0.77900   1.00
C5       0.67123    0.42955    0.80564   1.00
H2       0.65015    0.40559    0.75081   1.00
O3       0.48000    0.28786    0.69015   1.00
C4       0.52100    0.24962    0.75018   1.00
C3c      0.54243    0.27877    0.76943   1.00
H1       0.52725    0.30178    0.78476   1.00
C3d      0.54135    0.21959    0.73086   1.00
C3       0.58354    0.27908    0.76879   1.00
O2       0.60248    0.30568    0.79216   1.00
C3       0.58227    0.22022    0.72953   1.00
H1       0.59657    0.19735    0.71319   1.00
C2       0.60439    0.24972    0.74848   1.00
C5       0.47879    0.26594    0.65528   1.00
H2       0.44838    0.26137    0.64468   1.00
H2       0.49266    0.23675    0.65930   1.00
C5       0.50129    0.28861    0.62432   1.00
H2       0.53137    0.29413    0.63538   1.00
H2       0.48698    0.31754    0.62029   1.00
C5       0.50262    0.26600    0.58553   1.00
H2       0.47268    0.26014    0.57445   1.00
H2       0.51811    0.23770    0.58922   1.00
C5       0.52445    0.29002    0.55447   1.00
C5       0.51105    0.16037    0.73326   1.00
C5       0.61070    0.33991    0.77063   1.00
H2       0.49088    0.16992    0.75683   1.00
H2       0.53712    0.14640    0.74687   1.00
H2       0.58300    0.35368    0.76047   1.00
H2       0.62895    0.33398    0.74421   1.00
H2       0.69030    0.37938    0.77361   1.00
H2       0.44247    0.11344    0.74761   1.00
H2       0.48763    0.08647    0.75449   1.00
C2       0.39605    0.24953    0.74736   1.00
C3       0.41597    0.23196    0.77885   1.00
O2       0.39674    0.20657    0.80347   1.00
C3       0.41826    0.26858    0.71823   1.00
H1       0.40385    0.28318    0.69428   1.00
C3a      0.45713    0.23289    0.78002   1.00
H1       0.47202    0.21739    0.80312   1.00
C3b      0.45922    0.26838    0.71882   1.00
C4       0.47900    0.25038    0.74982   1.00
O3       0.52167    0.19190    0.70901   1.00
C5       0.38720    0.22546    0.83879   1.00
H2       0.41391    0.23630    0.85399   1.00
C5       0.36674    0.19546    0.86449   1.00
H2       0.36726    0.25061    0.83353   1.00
H2       0.38932    0.17646    0.87809   1.00
H2       0.34907    0.17637    0.84500   1.00
C5       0.34082    0.21420    0.89604   1.00
H2       0.35824    0.23547    0.91324   1.00
C5       0.32453    0.18296    0.92391   1.00
H2       0.31507    0.22931    0.88286   1.00
C5       0.49017    0.13039    0.70788   1.00
H2       0.51215    0.11599    0.68875   1.00
H2       0.46952    0.14619    0.68836   1.00
C5       0.46800    0.10002    0.73246   1.00
C5       0.45225    0.06738    0.70592   1.00
H2       0.69286    0.42018    0.82910   1.00
H2       0.68447    0.45409    0.78751   1.00
H2       0.64323    0.44027    0.82003   1.00
H2       0.53105    0.27076    0.52817   1.00
H2       0.50551    0.31565    0.54495   1.00
H2       0.55293    0.30144    0.56728   1.00
H2       0.29387    0.19156    0.93350   1.00
H2       0.32344    0.15363    0.90827   1.00
H2       0.34423    0.18055    0.95060   1.00
H2       0.45634    0.07605    0.67407   1.00
H2       0.46884    0.03920    0.71196   1.00
H2       0.41990    0.06273    0.71207   1.00
C5       0.20152    -0.13218   0.86715   1.00
H2       0.18054    -0.14745   0.84776   1.00
H2       0.18397    -0.11090   0.88418   1.00
C5       0.22100    -0.16194   0.89459   1.00
C5       0.19436    -0.17123   0.92955   1.00
H2       0.24919    -0.15015   0.90559   1.00
O3       0.30985    0.02000    0.78786   1.00
C4       0.24982    -0.02100   0.74962   1.00
C3c      0.23057    -0.04243   0.77877   1.00
H1       0.21524    -0.02725   0.80178   1.00
C3d      0.26914    -0.04135   0.71959   1.00
C3       0.23121    -0.08354   0.77908   1.00
O2       0.20784    -0.10248   0.80568   1.00
C3       0.27047    -0.08227   0.72022   1.00
H1       0.28681    -0.09657   0.69735   1.00
C2       0.25152    -0.10439   0.74972   1.00
C5       0.34472    0.02121    0.76594   1.00
H2       0.35532    0.05162    0.76137   1.00
H2       0.34070    0.00734    0.73675   1.00
C5       0.37568    -0.00129   0.78861   1.00
H2       0.36462    -0.03137   0.79413   1.00
H2       0.37971    0.01302    0.81754   1.00
C5       0.41447    -0.00262   0.76600   1.00
H2       0.42555    0.02732    0.76014   1.00
H2       0.41078    -0.01811   0.73770   1.00
C5       0.44553    -0.02445   0.79002   1.00
C5       0.26674    -0.01105   0.66037   1.00
C5       0.22937    -0.11070   0.83991   1.00
H2       0.24317    0.00912    0.66992   1.00
H2       0.25313    -0.03712   0.64640   1.00
H2       0.23953    -0.08300   0.85368   1.00
H2       0.25579    -0.12895   0.83398   1.00
H2       0.22639    -0.19030   0.87938   1.00
H2       0.25239    0.05753    0.61344   1.00
H2       0.24551    0.01237    0.58647   1.00
C2       0.25264    0.10395    0.74953   1.00
C3       0.22115    0.08403    0.73196   1.00
O2       0.19653    0.10326    0.70657   1.00
C3       0.28177    0.08174    0.76858   1.00
H1       0.30572    0.09615    0.78318   1.00
C3a      0.21998    0.04287    0.73289   1.00
H1       0.19688    0.02798    0.71739   1.00
C3b      0.28118    0.04078    0.76838   1.00
C4       0.25018    0.02100    0.75038   1.00
O3       0.29099    -0.02167   0.69190   1.00
C5       0.16121    0.11280    0.72546   1.00
H2       0.14601    0.08609    0.73630   1.00
C5       0.13551    0.13326    0.69546   1.00
H2       0.16647    0.13274    0.75061   1.00
H2       0.12191    0.11068    0.67646   1.00
H2       0.15500    0.15093    0.67637   1.00
C5       0.10396    0.15918    0.71420   1.00
H2       0.08676    0.14176    0.73547   1.00
C5       0.07609    0.17547    0.68296   1.00
H2       0.11714    0.18493    0.72931   1.00
C5       0.29212    0.00983    0.63039   1.00
H2       0.31125    -0.01215   0.61599   1.00
H2       0.31164    0.03048    0.64619   1.00
C5       0.26754    0.03200    0.60002   1.00
C5       0.29408    0.04775    0.56738   1.00
H2       0.17090    -0.19286   0.92018   1.00
H2       0.21249    -0.18447   0.95409   1.00
H2       0.17997    -0.14323   0.94027   1.00
H2       0.47183    -0.03105   0.77076   1.00
H2       0.45505    -0.00551   0.81565   1.00
H2       0.43272    -0.05293   0.80144   1.00
H2       0.06650    0.20613    0.69156   1.00
H2       0.09173    0.17656    0.65363   1.00
H2       0.04940    0.15577    0.68055   1.00
H2       0.32593    0.04366    0.57605   1.00
H2       0.28804    0.03116    0.53920   1.00
H2       0.28793    0.08010    0.56273   1.00
C5       0.36715    0.20152    0.36782   1.00
H2       0.34776    0.18054    0.35255   1.00
H2       0.38418    0.18397    0.38910   1.00
C5       0.39459    0.22100    0.33806   1.00
C5       0.42955    0.19436    0.32877   1.00
H2       0.40559    0.24919    0.34985   1.00
O3       0.28786    0.30985    0.52000   1.00
C4       0.24962    0.24982    0.47900   1.00
C3c      0.27877    0.23057    0.45757   1.00
H1       0.30178    0.21524    0.47275   1.00
C3d      0.21959    0.26914    0.45865   1.00
C3       0.27908    0.23121    0.41646   1.00
O2       0.30568    0.20784    0.39752   1.00
C3       0.22022    0.27047    0.41773   1.00
H1       0.19735    0.28681    0.40343   1.00
C2       0.24972    0.25152    0.39561   1.00
C5       0.26594    0.34472    0.52121   1.00
H2       0.26137    0.35532    0.55162   1.00
H2       0.23675    0.34070    0.50734   1.00
C5       0.28861    0.37568    0.49871   1.00
H2       0.29413    0.36462    0.46863   1.00
H2       0.31754    0.37971    0.51302   1.00
C5       0.26600    0.41447    0.49738   1.00
H2       0.26014    0.42555    0.52732   1.00
H2       0.23770    0.41078    0.48189   1.00
C5       0.29002    0.44553    0.47555   1.00
C5       0.16037    0.26674    0.48895   1.00
C5       0.33991    0.22937    0.38930   1.00
H2       0.16992    0.24317    0.50912   1.00
H2       0.14640    0.25313    0.46288   1.00
H2       0.35368    0.23953    0.41700   1.00
H2       0.33398    0.25579    0.37105   1.00
H2       0.37938    0.22639    0.30970   1.00
H2       0.11344    0.25239    0.55753   1.00
H2       0.08647    0.24551    0.51237   1.00
C2       0.24953    0.25264    0.60395   1.00
C3       0.23196    0.22115    0.58403   1.00
O2       0.20657    0.19653    0.60326   1.00
C3       0.26858    0.28177    0.58174   1.00
H1       0.28318    0.30572    0.59615   1.00
C3a      0.23289    0.21998    0.54287   1.00
H1       0.21739    0.19688    0.52798   1.00
C3b      0.26838    0.28118    0.54078   1.00
C4       0.25038    0.25018    0.52100   1.00
O3       0.19190    0.29099    0.47833   1.00
C5       0.22546    0.16121    0.61280   1.00
H2       0.23630    0.14601    0.58609   1.00
C5       0.19546    0.13551    0.63326   1.00
H2       0.25061    0.16647    0.63274   1.00
H2       0.17646    0.12191    0.61068   1.00
H2       0.17637    0.15500    0.65093   1.00
C5       0.21420    0.10396    0.65918   1.00
H2       0.23547    0.08676    0.64176   1.00
C5       0.18296    0.07609    0.67547   1.00
H2       0.22931    0.11714    0.68493   1.00
C5       0.13039    0.29212    0.50983   1.00
H2       0.11599    0.31125    0.48785   1.00
H2       0.14619    0.31164    0.53048   1.00
C5       0.10002    0.26754    0.53200   1.00
C5       0.06738    0.29408    0.54775   1.00
H2       0.42018    0.17090    0.30714   1.00
H2       0.45409    0.21249    0.31553   1.00
H2       0.44027    0.17997    0.35677   1.00
H2       0.27076    0.47183    0.46895   1.00
H2       0.31565    0.45505    0.49449   1.00
H2       0.30144    0.43272    0.44707   1.00
H2       0.19156    0.06650    0.70613   1.00
H2       0.15363    0.09173    0.67656   1.00
H2       0.18055    0.04940    0.65577   1.00
H2       0.07605    0.32593    0.54366   1.00
H2       0.03920    0.28804    0.53116   1.00
H2       0.06273    0.28793    0.58010   1.00
C5       0.36715    0.79848    0.63218   1.00
H2       0.34776    0.81946    0.64745   1.00
H2       0.38418    0.81603    0.61090   1.00
C5       0.39459    0.77900    0.66194   1.00
C5       0.42955    0.80564    0.67123   1.00
H2       0.40559    0.75081    0.65015   1.00
O3       0.28786    0.69015    0.48000   1.00
C4       0.24962    0.75018    0.52100   1.00
C3c      0.27877    0.76943    0.54243   1.00
H1       0.30178    0.78476    0.52725   1.00
C3d      0.21959    0.73086    0.54135   1.00
C3       0.27908    0.76879    0.58354   1.00
O2       0.30568    0.79216    0.60248   1.00
C3       0.22022    0.72953    0.58227   1.00
H1       0.19735    0.71319    0.59657   1.00
C2       0.24972    0.74848    0.60439   1.00
C5       0.26594    0.65528    0.47879   1.00
H2       0.26137    0.64468    0.44838   1.00
H2       0.23675    0.65930    0.49266   1.00
C5       0.28861    0.62432    0.50129   1.00
H2       0.29413    0.63538    0.53137   1.00
H2       0.31754    0.62029    0.48698   1.00
C5       0.26600    0.58553    0.50262   1.00
H2       0.26014    0.57445    0.47268   1.00
H2       0.23770    0.58922    0.51811   1.00
C5       0.29002    0.55447    0.52445   1.00
C5       0.16037    0.73326    0.51105   1.00
C5       0.33991    0.77063    0.61070   1.00
H2       0.16992    0.75683    0.49088   1.00
H2       0.14640    0.74687    0.53712   1.00
H2       0.35368    0.76047    0.58300   1.00
H2       0.33398    0.74421    0.62895   1.00
H2       0.37938    0.77361    0.69030   1.00
H2       0.11344    0.74761    0.44247   1.00
H2       0.08647    0.75449    0.48763   1.00
C2       0.24953    0.74736    0.39605   1.00
C3       0.23196    0.77885    0.41597   1.00
O2       0.20657    0.80347    0.39674   1.00
C3       0.26858    0.71823    0.41826   1.00
H1       0.28318    0.69428    0.40385   1.00
C3a      0.23289    0.78002    0.45713   1.00
H1       0.21739    0.80312    0.47202   1.00
C3b      0.26838    0.71882    0.45922   1.00
C4       0.25038    0.74982    0.47900   1.00
O3       0.19190    0.70901    0.52167   1.00
C5       0.22546    0.83879    0.38720   1.00
H2       0.23630    0.85399    0.41391   1.00
C5       0.19546    0.86449    0.36674   1.00
H2       0.25061    0.83353    0.36726   1.00
H2       0.17646    0.87809    0.38932   1.00
H2       0.17637    0.84500    0.34907   1.00
C5       0.21420    0.89604    0.34082   1.00
H2       0.23547    0.91324    0.35824   1.00
C5       0.18296    0.92391    0.32453   1.00
H2       0.22931    0.88286    0.31507   1.00
C5       0.13039    0.70788    0.49017   1.00
H2       0.11599    0.68875    0.51215   1.00
H2       0.14619    0.68836    0.46952   1.00
C5       0.10002    0.73246    0.46800   1.00
C5       0.06738    0.70592    0.45225   1.00
H2       0.42018    0.82910    0.69286   1.00
H2       0.45409    0.78751    0.68447   1.00
H2       0.44027    0.82003    0.64323   1.00
H2       0.27076    0.52817    0.53105   1.00
H2       0.31565    0.54495    0.50551   1.00
H2       0.30144    0.56728    0.55293   1.00
H2       0.19156    0.93350    0.29387   1.00
H2       0.15363    0.90827    0.32344   1.00
H2       0.18055    0.95060    0.34423   1.00
H2       0.07605    0.67407    0.45634   1.00
H2       0.03920    0.71196    0.46884   1.00
H2       0.06273    0.71207    0.41990   1.00
C5       0.29848    1.13218    0.36715   1.00
H2       0.31946    1.14745    0.34776   1.00
H2       0.31603    1.11090    0.38418   1.00
C5       0.27900    1.16194    0.39459   1.00
C5       0.30564    1.17123    0.42955   1.00
H2       0.25081    1.15015    0.40559   1.00
O3       0.19015    0.98000    0.28786   1.00
C4       0.25018    1.02100    0.24962   1.00
C3c      0.26943    1.04243    0.27877   1.00
H1       0.28476    1.02725    0.30178   1.00
C3d      0.23086    1.04135    0.21959   1.00
C3       0.26879    1.08354    0.27908   1.00
O2       0.29216    1.10248    0.30568   1.00
C3       0.22953    1.08227    0.22022   1.00
H1       0.21319    1.09657    0.19735   1.00
C2       0.24848    1.10439    0.24972   1.00
C5       0.15528    0.97879    0.26594   1.00
H2       0.14468    0.94838    0.26137   1.00
H2       0.15930    0.99266    0.23675   1.00
C5       0.12432    1.00129    0.28861   1.00
H2       0.13538    1.03137    0.29413   1.00
H2       0.12029    0.98698    0.31754   1.00
C5       0.08553    1.00262    0.26600   1.00
H2       0.07445    0.97268    0.26014   1.00
H2       0.08922    1.01811    0.23770   1.00
C5       0.05447    1.02445    0.29002   1.00
C5       0.23326    1.01105    0.16037   1.00
C5       0.27063    1.11070    0.33991   1.00
H2       0.25683    0.99088    0.16992   1.00
H2       0.24687    1.03712    0.14640   1.00
H2       0.26047    1.08300    0.35368   1.00
H2       0.24421    1.12895    0.33398   1.00
H2       0.27361    1.19030    0.37938   1.00
H2       0.24761    0.94247    0.11344   1.00
H2       0.25449    0.98763    0.08647   1.00
C2       0.24736    0.89605    0.24953   1.00
C3       0.27885    0.91597    0.23196   1.00
O2       0.30347    0.89674    0.20657   1.00
C3       0.21823    0.91826    0.26858   1.00
H1       0.19428    0.90385    0.28318   1.00
C3a      0.28002    0.95713    0.23289   1.00
H1       0.30312    0.97202    0.21739   1.00
C3b      0.21882    0.95922    0.26838   1.00
C4       0.24982    0.97900    0.25038   1.00
O3       0.20901    1.02167    0.19190   1.00
C5       0.33879    0.88720    0.22546   1.00
H2       0.35399    0.91391    0.23630   1.00
C5       0.36449    0.86674    0.19546   1.00
H2       0.33353    0.86726    0.25061   1.00
H2       0.37809    0.88932    0.17646   1.00
H2       0.34500    0.84907    0.17637   1.00
C5       0.39604    0.84082    0.21420   1.00
H2       0.41324    0.85824    0.23547   1.00
C5       0.42391    0.82453    0.18296   1.00
H2       0.38286    0.81507    0.22931   1.00
C5       0.20788    0.99017    0.13039   1.00
H2       0.18875    1.01215    0.11599   1.00
H2       0.18836    0.96952    0.14619   1.00
C5       0.23246    0.96800    0.10002   1.00
C5       0.20592    0.95225    0.06738   1.00
H2       0.32910    1.19286    0.42018   1.00
H2       0.28751    1.18447    0.45409   1.00
H2       0.32003    1.14323    0.44027   1.00
H2       0.02817    1.03105    0.27076   1.00
H2       0.04495    1.00551    0.31565   1.00
H2       0.06728    1.05293    0.30144   1.00
H2       0.43350    0.79387    0.19156   1.00
H2       0.40827    0.82344    0.15363   1.00
H2       0.45060    0.84423    0.18055   1.00
H2       0.17407    0.95634    0.07605   1.00
H2       0.21196    0.96884    0.03920   1.00
H2       0.21207    0.91990    0.06273   1.00
C5       -0.13218   0.86715    0.20152   1.00
H2       -0.14745   0.84776    0.18054   1.00
H2       -0.11090   0.88418    0.18397   1.00
C5       -0.16194   0.89459    0.22100   1.00
C5       -0.17123   0.92955    0.19436   1.00
H2       -0.15015   0.90559    0.24919   1.00
O3       0.02000    0.78786    0.30985   1.00
C4       -0.02100   0.74962    0.24982   1.00
C3c      -0.04243   0.77877    0.23057   1.00
H1       -0.02725   0.80178    0.21524   1.00
C3d      -0.04135   0.71959    0.26914   1.00
C3       -0.08354   0.77908    0.23121   1.00
O2       -0.10248   0.80568    0.20784   1.00
C3       -0.08227   0.72022    0.27047   1.00
H1       -0.09657   0.69735    0.28681   1.00
C2       -0.10439   0.74972    0.25152   1.00
C5       0.02121    0.76594    0.34472   1.00
H2       0.05162    0.76137    0.35532   1.00
H2       0.00734    0.73675    0.34070   1.00
C5       -0.00129   0.78861    0.37568   1.00
H2       -0.03137   0.79413    0.36462   1.00
H2       0.01302    0.81754    0.37971   1.00
C5       -0.00262   0.76600    0.41447   1.00
H2       0.02732    0.76014    0.42555   1.00
H2       -0.01811   0.73770    0.41078   1.00
C5       -0.02445   0.79002    0.44553   1.00
C5       -0.01105   0.66037    0.26674   1.00
C5       -0.11070   0.83991    0.22937   1.00
H2       0.00912    0.66992    0.24317   1.00
H2       -0.03712   0.64640    0.25313   1.00
H2       -0.08300   0.85368    0.23953   1.00
H2       -0.12895   0.83398    0.25579   1.00
H2       -0.19030   0.87938    0.22639   1.00
H2       0.05753    0.61344    0.25239   1.00
H2       0.01237    0.58647    0.24551   1.00
C2       0.10395    0.74953    0.25264   1.00
C3       0.08403    0.73196    0.22115   1.00
O2       0.10326    0.70657    0.19653   1.00
C3       0.08174    0.76858    0.28177   1.00
H1       0.09615    0.78318    0.30572   1.00
C3a      0.04287    0.73289    0.21998   1.00
H1       0.02798    0.71739    0.19688   1.00
C3b      0.04078    0.76838    0.28118   1.00
C4       0.02100    0.75038    0.25018   1.00
O3       -0.02167   0.69190    0.29099   1.00
C5       0.11280    0.72546    0.16121   1.00
H2       0.08609    0.73630    0.14601   1.00
C5       0.13326    0.69546    0.13551   1.00
H2       0.13274    0.75061    0.16647   1.00
H2       0.11068    0.67646    0.12191   1.00
H2       0.15093    0.67637    0.15500   1.00
C5       0.15918    0.71420    0.10396   1.00
H2       0.14176    0.73547    0.08676   1.00
C5       0.17547    0.68296    0.07609   1.00
H2       0.18493    0.72931    0.11714   1.00
C5       0.00983    0.63039    0.29212   1.00
H2       -0.01215   0.61599    0.31125   1.00
H2       0.03048    0.64619    0.31164   1.00
C5       0.03200    0.60002    0.26754   1.00
C5       0.04775    0.56738    0.29408   1.00
H2       -0.19286   0.92018    0.17090   1.00
H2       -0.18447   0.95409    0.21249   1.00
H2       -0.14323   0.94027    0.17997   1.00
H2       -0.03105   0.77076    0.47183   1.00
H2       -0.00551   0.81565    0.45505   1.00
H2       -0.05293   0.80144    0.43272   1.00
H2       0.20613    0.69156    0.06650   1.00
H2       0.17656    0.65363    0.09173   1.00
H2       0.15577    0.68055    0.04940   1.00
H2       0.04366    0.57605    0.32593   1.00
H2       0.03116    0.53920    0.28804   1.00
H2       0.08010    0.56273    0.28793   1.00
C5       0.63218    0.86715    0.29848   1.00
H2       0.64745    0.84776    0.31946   1.00
H2       0.61090    0.88418    0.31603   1.00
C5       0.66194    0.89459    0.27900   1.00
C5       0.67123    0.92955    0.30564   1.00
H2       0.65015    0.90559    0.25081   1.00
O3       0.48000    0.78786    0.19015   1.00
C4       0.52100    0.74962    0.25018   1.00
C3c      0.54243    0.77877    0.26943   1.00
H1       0.52725    0.80178    0.28476   1.00
C3d      0.54135    0.71959    0.23086   1.00
C3       0.58354    0.77908    0.26879   1.00
O2       0.60248    0.80568    0.29216   1.00
C3       0.58227    0.72022    0.22953   1.00
H1       0.59657    0.69735    0.21319   1.00
C2       0.60439    0.74972    0.24848   1.00
C5       0.47879    0.76594    0.15528   1.00
H2       0.44838    0.76137    0.14468   1.00
H2       0.49266    0.73675    0.15930   1.00
C5       0.50129    0.78861    0.12432   1.00
H2       0.53137    0.79413    0.13538   1.00
H2       0.48698    0.81754    0.12029   1.00
C5       0.50262    0.76600    0.08553   1.00
H2       0.47268    0.76014    0.07445   1.00
H2       0.51811    0.73770    0.08922   1.00
C5       0.52445    0.79002    0.05447   1.00
C5       0.51105    0.66037    0.23326   1.00
C5       0.61070    0.83991    0.27063   1.00
H2       0.49088    0.66992    0.25683   1.00
H2       0.53712    0.64640    0.24687   1.00
H2       0.58300    0.85368    0.26047   1.00
H2       0.62895    0.83398    0.24421   1.00
H2       0.69030    0.87938    0.27361   1.00
H2       0.44247    0.61344    0.24761   1.00
H2       0.48763    0.58647    0.25449   1.00
C2       0.39605    0.74953    0.24736   1.00
C3       0.41597    0.73196    0.27885   1.00
O2       0.39674    0.70657    0.30347   1.00
C3       0.41826    0.76858    0.21823   1.00
H1       0.40385    0.78318    0.19428   1.00
C3a      0.45713    0.73289    0.28002   1.00
H1       0.47202    0.71739    0.30312   1.00
C3b      0.45922    0.76838    0.21882   1.00
C4       0.47900    0.75038    0.24982   1.00
O3       0.52167    0.69190    0.20901   1.00
C5       0.38720    0.72546    0.33879   1.00
H2       0.41391    0.73630    0.35399   1.00
C5       0.36674    0.69546    0.36449   1.00
H2       0.36726    0.75061    0.33353   1.00
H2       0.38932    0.67646    0.37809   1.00
H2       0.34907    0.67637    0.34500   1.00
C5       0.34082    0.71420    0.39604   1.00
H2       0.35824    0.73547    0.41324   1.00
C5       0.32453    0.68296    0.42391   1.00
H2       0.31507    0.72931    0.38286   1.00
C5       0.49017    0.63039    0.20788   1.00
H2       0.51215    0.61599    0.18875   1.00
H2       0.46952    0.64619    0.18836   1.00
C5       0.46800    0.60002    0.23246   1.00
C5       0.45225    0.56738    0.20592   1.00
H2       0.69286    0.92018    0.32910   1.00
H2       0.68447    0.95409    0.28751   1.00
H2       0.64323    0.94027    0.32003   1.00
H2       0.53105    0.77076    0.02817   1.00
H2       0.50551    0.81565    0.04495   1.00
H2       0.55293    0.80144    0.06728   1.00
H2       0.29387    0.69156    0.43350   1.00
H2       0.32344    0.65363    0.40827   1.00
H2       0.34423    0.68055    0.45060   1.00
H2       0.45634    0.57605    0.17407   1.00
H2       0.46884    0.53920    0.21196   1.00
H2       0.41990    0.56273    0.21207   1.00
C5       0.20152    0.36782    0.36715   1.00
H2       0.18054    0.35255    0.34776   1.00
H2       0.18397    0.38910    0.38418   1.00
C5       0.22100    0.33806    0.39459   1.00
C5       0.19436    0.32877    0.42955   1.00
H2       0.24919    0.34985    0.40559   1.00
O3       0.30985    0.52000    0.28786   1.00
C4       0.24982    0.47900    0.24962   1.00
C3c      0.23057    0.45757    0.27877   1.00
H1       0.21524    0.47275    0.30178   1.00
C3d      0.26914    0.45865    0.21959   1.00
C3       0.23121    0.41646    0.27908   1.00
O2       0.20784    0.39752    0.30568   1.00
C3       0.27047    0.41773    0.22022   1.00
H1       0.28681    0.40343    0.19735   1.00
C2       0.25152    0.39561    0.24972   1.00
C5       0.34472    0.52121    0.26594   1.00
H2       0.35532    0.55162    0.26137   1.00
H2       0.34070    0.50734    0.23675   1.00
C5       0.37568    0.49871    0.28861   1.00
H2       0.36462    0.46863    0.29413   1.00
H2       0.37971    0.51302    0.31754   1.00
C5       0.41447    0.49738    0.26600   1.00
H2       0.42555    0.52732    0.26014   1.00
H2       0.41078    0.48189    0.23770   1.00
C5       0.44553    0.47555    0.29002   1.00
C5       0.26674    0.48895    0.16037   1.00
C5       0.22937    0.38930    0.33991   1.00
H2       0.24317    0.50912    0.16992   1.00
H2       0.25313    0.46288    0.14640   1.00
H2       0.23953    0.41700    0.35368   1.00
H2       0.25579    0.37105    0.33398   1.00
H2       0.22639    0.30970    0.37938   1.00
H2       0.25239    0.55753    0.11344   1.00
H2       0.24551    0.51237    0.08647   1.00
C2       0.25264    0.60395    0.24953   1.00
C3       0.22115    0.58403    0.23196   1.00
O2       0.19653    0.60326    0.20657   1.00
C3       0.28177    0.58174    0.26858   1.00
H1       0.30572    0.59615    0.28318   1.00
C3a      0.21998    0.54287    0.23289   1.00
H1       0.19688    0.52798    0.21739   1.00
C3b      0.28118    0.54078    0.26838   1.00
C4       0.25018    0.52100    0.25038   1.00
O3       0.29099    0.47833    0.19190   1.00
C5       0.16121    0.61280    0.22546   1.00
H2       0.14601    0.58609    0.23630   1.00
C5       0.13551    0.63326    0.19546   1.00
H2       0.16647    0.63274    0.25061   1.00
H2       0.12191    0.61068    0.17646   1.00
H2       0.15500    0.65093    0.17637   1.00
C5       0.10396    0.65918    0.21420   1.00
H2       0.08676    0.64176    0.23547   1.00
C5       0.07609    0.67547    0.18296   1.00
H2       0.11714    0.68493    0.22931   1.00
C5       0.29212    0.50983    0.13039   1.00
H2       0.31125    0.48785    0.11599   1.00
H2       0.31164    0.53048    0.14619   1.00
C5       0.26754    0.53200    0.10002   1.00
C5       0.29408    0.54775    0.06738   1.00
H2       0.17090    0.30714    0.42018   1.00
H2       0.21249    0.31553    0.45409   1.00
H2       0.17997    0.35677    0.44027   1.00
H2       0.47183    0.46895    0.27076   1.00
H2       0.45505    0.49449    0.31565   1.00
H2       0.43272    0.44707    0.30144   1.00
H2       0.06650    0.70613    0.19156   1.00
H2       0.09173    0.67656    0.15363   1.00
H2       0.04940    0.65577    0.18055   1.00
H2       0.32593    0.54366    0.07605   1.00
H2       0.28804    0.53116    0.03920   1.00
H2       0.28793    0.58010    0.06273   1.00
C5       0.36715    0.70152    -0.13218   1.00
H2       0.34776    0.68054    -0.14745   1.00
H2       0.38418    0.68397    -0.11090   1.00
C5       0.39459    0.72100    -0.16194   1.00
C5       0.42955    0.69436    -0.17123   1.00
H2       0.40559    0.74919    -0.15015   1.00
O3       0.28786    0.80985    0.02000   1.00
C4       0.24962    0.74982    -0.02100   1.00
C3c      0.27877    0.73057    -0.04243   1.00
H1       0.30178    0.71524    -0.02725   1.00
C3d      0.21959    0.76914    -0.04135   1.00
C3       0.27908    0.73121    -0.08354   1.00
O2       0.30568    0.70784    -0.10248   1.00
C3       0.22022    0.77047    -0.08227   1.00
H1       0.19735    0.78681    -0.09657   1.00
C2       0.24972    0.75152    -0.10439   1.00
C5       0.26594    0.84472    0.02121   1.00
H2       0.26137    0.85532    0.05162   1.00
H2       0.23675    0.84070    0.00734   1.00
C5       0.28861    0.87568    -0.00129   1.00
H2       0.29413    0.86462    -0.03137   1.00
H2       0.31754    0.87971    0.01302   1.00
C5       0.26600    0.91447    -0.00262   1.00
H2       0.26014    0.92555    0.02732   1.00
H2       0.23770    0.91078    -0.01811   1.00
C5       0.29002    0.94553    -0.02445   1.00
C5       0.16037    0.76674    -0.01105   1.00
C5       0.33991    0.72937    -0.11070   1.00
H2       0.16992    0.74317    0.00912   1.00
H2       0.14640    0.75313    -0.03712   1.00
H2       0.35368    0.73953    -0.08300   1.00
H2       0.33398    0.75579    -0.12895   1.00
H2       0.37938    0.72639    -0.19030   1.00
H2       0.11344    0.75239    0.05753   1.00
H2       0.08647    0.74551    0.01237   1.00
C2       0.24953    0.75264    0.10395   1.00
C3       0.23196    0.72115    0.08403   1.00
O2       0.20657    0.69653    0.10326   1.00
C3       0.26858    0.78177    0.08174   1.00
H1       0.28318    0.80572    0.09615   1.00
C3a      0.23289    0.71998    0.04287   1.00
H1       0.21739    0.69688    0.02798   1.00
C3b      0.26838    0.78118    0.04078   1.00
C4       0.25038    0.75018    0.02100   1.00
O3       0.19190    0.79099    -0.02167   1.00
C5       0.22546    0.66121    0.11280   1.00
H2       0.23630    0.64601    0.08609   1.00
C5       0.19546    0.63551    0.13326   1.00
H2       0.25061    0.66647    0.13274   1.00
H2       0.17646    0.62191    0.11068   1.00
H2       0.17637    0.65500    0.15093   1.00
C5       0.21420    0.60396    0.15918   1.00
H2       0.23547    0.58676    0.14176   1.00
C5       0.18296    0.57609    0.17547   1.00
H2       0.22931    0.61714    0.18493   1.00
C5       0.13039    0.79212    0.00983   1.00
H2       0.11599    0.81125    -0.01215   1.00
H2       0.14619    0.81164    0.03048   1.00
C5       0.10002    0.76754    0.03200   1.00
C5       0.06738    0.79408    0.04775   1.00
H2       0.42018    0.67090    -0.19286   1.00
H2       0.45409    0.71249    -0.18447   1.00
H2       0.44027    0.67997    -0.14323   1.00
H2       0.27076    0.97183    -0.03105   1.00
H2       0.31565    0.95505    -0.00551   1.00
H2       0.30144    0.93272    -0.05293   1.00
H2       0.19156    0.56650    0.20613   1.00
H2       0.15363    0.59173    0.17656   1.00
H2       0.18055    0.54940    0.15577   1.00
H2       0.07605    0.82593    0.04366   1.00
H2       0.03920    0.78804    0.03116   1.00
H2       0.06273    0.78793    0.08010   1.00
C5       0.86715    0.29848    0.63218   1.00
H2       0.84776    0.31946    0.64745   1.00
H2       0.88418    0.31603    0.61090   1.00
C5       0.89459    0.27900    0.66194   1.00
C5       0.92955    0.30564    0.67123   1.00
H2       0.90559    0.25081    0.65015   1.00
O3       0.78786    0.19015    0.48000   1.00
C4       0.74962    0.25018    0.52100   1.00
C3c      0.77877    0.26943    0.54243   1.00
H1       0.80178    0.28476    0.52725   1.00
C3d      0.71959    0.23086    0.54135   1.00
C3       0.77908    0.26879    0.58354   1.00
O2       0.80568    0.29216    0.60248   1.00
C3       0.72022    0.22953    0.58227   1.00
H1       0.69735    0.21319    0.59657   1.00
C2       0.74972    0.24848    0.60439   1.00
C5       0.76594    0.15528    0.47879   1.00
H2       0.76137    0.14468    0.44838   1.00
H2       0.73675    0.15930    0.49266   1.00
C5       0.78861    0.12432    0.50129   1.00
H2       0.79413    0.13538    0.53137   1.00
H2       0.81754    0.12029    0.48698   1.00
C5       0.76600    0.08553    0.50262   1.00
H2       0.76014    0.07445    0.47268   1.00
H2       0.73770    0.08922    0.51811   1.00
C5       0.79002    0.05447    0.52445   1.00
C5       0.66037    0.23326    0.51105   1.00
C5       0.83991    0.27063    0.61070   1.00
H2       0.66992    0.25683    0.49088   1.00
H2       0.64640    0.24687    0.53712   1.00
H2       0.85368    0.26047    0.58300   1.00
H2       0.83398    0.24421    0.62895   1.00
H2       0.87938    0.27361    0.69030   1.00
H2       0.61344    0.24761    0.44247   1.00
H2       0.58647    0.25449    0.48763   1.00
C2       0.74953    0.24736    0.39605   1.00
C3       0.73196    0.27885    0.41597   1.00
O2       0.70657    0.30347    0.39674   1.00
C3       0.76858    0.21823    0.41826   1.00
H1       0.78318    0.19428    0.40385   1.00
C3a      0.73289    0.28002    0.45713   1.00
H1       0.71739    0.30312    0.47202   1.00
C3b      0.76838    0.21882    0.45922   1.00
C4       0.75038    0.24982    0.47900   1.00
O3       0.69190    0.20901    0.52167   1.00
C5       0.72546    0.33879    0.38720   1.00
H2       0.73630    0.35399    0.41391   1.00
C5       0.69546    0.36449    0.36674   1.00
H2       0.75061    0.33353    0.36726   1.00
H2       0.67646    0.37809    0.38932   1.00
H2       0.67637    0.34500    0.34907   1.00
C5       0.71420    0.39604    0.34082   1.00
H2       0.73547    0.41324    0.35824   1.00
C5       0.68296    0.42391    0.32453   1.00
H2       0.72931    0.38286    0.31507   1.00
C5       0.63039    0.20788    0.49017   1.00
H2       0.61599    0.18875    0.51215   1.00
H2       0.64619    0.18836    0.46952   1.00
C5       0.60002    0.23246    0.46800   1.00
C5       0.56738    0.20592    0.45225   1.00
H2       0.92018    0.32910    0.69286   1.00
H2       0.95409    0.28751    0.68447   1.00
H2       0.94027    0.32003    0.64323   1.00
H2       0.77076    0.02817    0.53105   1.00
H2       0.81565    0.04495    0.50551   1.00
H2       0.80144    0.06728    0.55293   1.00
H2       0.69156    0.43350    0.29387   1.00
H2       0.65363    0.40827    0.32344   1.00
H2       0.68055    0.45060    0.34423   1.00
H2       0.57605    0.17407    0.45634   1.00
H2       0.53920    0.21196    0.46884   1.00
H2       0.56273    0.21207    0.41990   1.00
C5       0.79848    0.63218    0.36715   1.00
H2       0.81946    0.64745    0.34776   1.00
H2       0.81603    0.61090    0.38418   1.00
C5       0.77900    0.66194    0.39459   1.00
C5       0.80564    0.67123    0.42955   1.00
H2       0.75081    0.65015    0.40559   1.00
O3       0.69015    0.48000    0.28786   1.00
C4       0.75018    0.52100    0.24962   1.00
C3c      0.76943    0.54243    0.27877   1.00
H1       0.78476    0.52725    0.30178   1.00
C3d      0.73086    0.54135    0.21959   1.00
C3       0.76879    0.58354    0.27908   1.00
O2       0.79216    0.60248    0.30568   1.00
C3       0.72953    0.58227    0.22022   1.00
H1       0.71319    0.59657    0.19735   1.00
C2       0.74848    0.60439    0.24972   1.00
C5       0.65528    0.47879    0.26594   1.00
H2       0.64468    0.44838    0.26137   1.00
H2       0.65930    0.49266    0.23675   1.00
C5       0.62432    0.50129    0.28861   1.00
H2       0.63538    0.53137    0.29413   1.00
H2       0.62029    0.48698    0.31754   1.00
C5       0.58553    0.50262    0.26600   1.00
H2       0.57445    0.47268    0.26014   1.00
H2       0.58922    0.51811    0.23770   1.00
C5       0.55447    0.52445    0.29002   1.00
C5       0.73326    0.51105    0.16037   1.00
C5       0.77063    0.61070    0.33991   1.00
H2       0.75683    0.49088    0.16992   1.00
H2       0.74687    0.53712    0.14640   1.00
H2       0.76047    0.58300    0.35368   1.00
H2       0.74421    0.62895    0.33398   1.00
H2       0.77361    0.69030    0.37938   1.00
H2       0.74761    0.44247    0.11344   1.00
H2       0.75449    0.48763    0.08647   1.00
C2       0.74736    0.39605    0.24953   1.00
C3       0.77885    0.41597    0.23196   1.00
O2       0.80347    0.39674    0.20657   1.00
C3       0.71823    0.41826    0.26858   1.00
H1       0.69428    0.40385    0.28318   1.00
C3a      0.78002    0.45713    0.23289   1.00
H1       0.80312    0.47202    0.21739   1.00
C3b      0.71882    0.45922    0.26838   1.00
C4       0.74982    0.47900    0.25038   1.00
O3       0.70901    0.52167    0.19190   1.00
C5       0.83879    0.38720    0.22546   1.00
H2       0.85399    0.41391    0.23630   1.00
C5       0.86449    0.36674    0.19546   1.00
H2       0.83353    0.36726    0.25061   1.00
H2       0.87809    0.38932    0.17646   1.00
H2       0.84500    0.34907    0.17637   1.00
C5       0.89604    0.34082    0.21420   1.00
H2       0.91324    0.35824    0.23547   1.00
C5       0.92391    0.32453    0.18296   1.00
H2       0.88286    0.31507    0.22931   1.00
C5       0.70788    0.49017    0.13039   1.00
H2       0.68875    0.51215    0.11599   1.00
H2       0.68836    0.46952    0.14619   1.00
C5       0.73246    0.46800    0.10002   1.00
C5       0.70592    0.45225    0.06738   1.00
H2       0.82910    0.69286    0.42018   1.00
H2       0.78751    0.68447    0.45409   1.00
H2       0.82003    0.64323    0.44027   1.00
H2       0.52817    0.53105    0.27076   1.00
H2       0.54495    0.50551    0.31565   1.00
H2       0.56728    0.55293    0.30144   1.00
H2       0.93350    0.29387    0.19156   1.00
H2       0.90827    0.32344    0.15363   1.00
H2       0.95060    0.34423    0.18055   1.00
H2       0.67407    0.45634    0.07605   1.00
H2       0.71196    0.46884    0.03920   1.00
H2       0.71207    0.41990    0.06273   1.00
C5       0.36782    0.36715    0.20152   1.00
H2       0.35255    0.34776    0.18054   1.00
H2       0.38910    0.38418    0.18397   1.00
C5       0.33806    0.39459    0.22100   1.00
C5       0.32877    0.42955    0.19436   1.00
H2       0.34985    0.40559    0.24919   1.00
O3       0.52000    0.28786    0.30985   1.00
C4       0.47900    0.24962    0.24982   1.00
C3c      0.45757    0.27877    0.23057   1.00
H1       0.47275    0.30178    0.21524   1.00
C3d      0.45865    0.21959    0.26914   1.00
C3       0.41646    0.27908    0.23121   1.00
O2       0.39752    0.30568    0.20784   1.00
C3       0.41773    0.22022    0.27047   1.00
H1       0.40343    0.19735    0.28681   1.00
C2       0.39561    0.24972    0.25152   1.00
C5       0.52121    0.26594    0.34472   1.00
H2       0.55162    0.26137    0.35532   1.00
H2       0.50734    0.23675    0.34070   1.00
C5       0.49871    0.28861    0.37568   1.00
H2       0.46863    0.29413    0.36462   1.00
H2       0.51302    0.31754    0.37971   1.00
C5       0.49738    0.26600    0.41447   1.00
H2       0.52732    0.26014    0.42555   1.00
H2       0.48189    0.23770    0.41078   1.00
C5       0.47555    0.29002    0.44553   1.00
C5       0.48895    0.16037    0.26674   1.00
C5       0.38930    0.33991    0.22937   1.00
H2       0.50912    0.16992    0.24317   1.00
H2       0.46288    0.14640    0.25313   1.00
H2       0.41700    0.35368    0.23953   1.00
H2       0.37105    0.33398    0.25579   1.00
H2       0.30970    0.37938    0.22639   1.00
H2       0.55753    0.11344    0.25239   1.00
H2       0.51237    0.08647    0.24551   1.00
C2       0.60395    0.24953    0.25264   1.00
C3       0.58403    0.23196    0.22115   1.00
O2       0.60326    0.20657    0.19653   1.00
C3       0.58174    0.26858    0.28177   1.00
H1       0.59615    0.28318    0.30572   1.00
C3a      0.54287    0.23289    0.21998   1.00
H1       0.52798    0.21739    0.19688   1.00
C3b      0.54078    0.26838    0.28118   1.00
C4       0.52100    0.25038    0.25018   1.00
O3       0.47833    0.19190    0.29099   1.00
C5       0.61280    0.22546    0.16121   1.00
H2       0.58609    0.23630    0.14601   1.00
C5       0.63326    0.19546    0.13551   1.00
H2       0.63274    0.25061    0.16647   1.00
H2       0.61068    0.17646    0.12191   1.00
H2       0.65093    0.17637    0.15500   1.00
C5       0.65918    0.21420    0.10396   1.00
H2       0.64176    0.23547    0.08676   1.00
C5       0.67547    0.18296    0.07609   1.00
H2       0.68493    0.22931    0.11714   1.00
C5       0.50983    0.13039    0.29212   1.00
H2       0.48785    0.11599    0.31125   1.00
H2       0.53048    0.14619    0.31164   1.00
C5       0.53200    0.10002    0.26754   1.00
C5       0.54775    0.06738    0.29408   1.00
H2       0.30714    0.42018    0.17090   1.00
H2       0.31553    0.45409    0.21249   1.00
H2       0.35677    0.44027    0.17997   1.00
H2       0.46895    0.27076    0.47183   1.00
H2       0.49449    0.31565    0.45505   1.00
H2       0.44707    0.30144    0.43272   1.00
H2       0.70613    0.19156    0.06650   1.00
H2       0.67656    0.15363    0.09173   1.00
H2       0.65577    0.18055    0.04940   1.00
H2       0.54366    0.07605    0.32593   1.00
H2       0.53116    0.03920    0.28804   1.00
H2       0.58010    0.06273    0.28793   1.00
C5       1.13218    0.36715    0.29848   1.00
H2       1.14745    0.34776    0.31946   1.00
H2       1.11090    0.38418    0.31603   1.00
C5       1.16194    0.39459    0.27900   1.00
C5       1.17123    0.42955    0.30564   1.00
H2       1.15015    0.40559    0.25081   1.00
O3       0.98000    0.28786    0.19015   1.00
C4       1.02100    0.24962    0.25018   1.00
C3c      1.04243    0.27877    0.26943   1.00
H1       1.02725    0.30178    0.28476   1.00
C3d      1.04135    0.21959    0.23086   1.00
C3       1.08354    0.27908    0.26879   1.00
O2       1.10248    0.30568    0.29216   1.00
C3       1.08227    0.22022    0.22953   1.00
H1       1.09657    0.19735    0.21319   1.00
C2       1.10439    0.24972    0.24848   1.00
C5       0.97879    0.26594    0.15528   1.00
H2       0.94838    0.26137    0.14468   1.00
H2       0.99266    0.23675    0.15930   1.00
C5       1.00129    0.28861    0.12432   1.00
H2       1.03137    0.29413    0.13538   1.00
H2       0.98698    0.31754    0.12029   1.00
C5       1.00262    0.26600    0.08553   1.00
H2       0.97268    0.26014    0.07445   1.00
H2       1.01811    0.23770    0.08922   1.00
C5       1.02445    0.29002    0.05447   1.00
C5       1.01105    0.16037    0.23326   1.00
C5       1.11070    0.33991    0.27063   1.00
H2       0.99088    0.16992    0.25683   1.00
H2       1.03712    0.14640    0.24687   1.00
H2       1.08300    0.35368    0.26047   1.00
H2       1.12895    0.33398    0.24421   1.00
H2       1.19030    0.37938    0.27361   1.00
H2       0.94247    0.11344    0.24761   1.00
H2       0.98763    0.08647    0.25449   1.00
C2       0.89605    0.24953    0.24736   1.00
C3       0.91597    0.23196    0.27885   1.00
O2       0.89674    0.20657    0.30347   1.00
C3       0.91826    0.26858    0.21823   1.00
H1       0.90385    0.28318    0.19428   1.00
C3a      0.95713    0.23289    0.28002   1.00
H1       0.97202    0.21739    0.30312   1.00
C3b      0.95922    0.26838    0.21882   1.00
C4       0.97900    0.25038    0.24982   1.00
O3       1.02167    0.19190    0.20901   1.00
C5       0.88720    0.22546    0.33879   1.00
H2       0.91391    0.23630    0.35399   1.00
C5       0.86674    0.19546    0.36449   1.00
H2       0.86726    0.25061    0.33353   1.00
H2       0.88932    0.17646    0.37809   1.00
H2       0.84907    0.17637    0.34500   1.00
C5       0.84082    0.21420    0.39604   1.00
H2       0.85824    0.23547    0.41324   1.00
C5       0.82453    0.18296    0.42391   1.00
H2       0.81507    0.22931    0.38286   1.00
C5       0.99017    0.13039    0.20788   1.00
H2       1.01215    0.11599    0.18875   1.00
H2       0.96952    0.14619    0.18836   1.00
C5       0.96800    0.10002    0.23246   1.00
C5       0.95225    0.06738    0.20592   1.00
H2       1.19286    0.42018    0.32910   1.00
H2       1.18447    0.45409    0.28751   1.00
H2       1.14323    0.44027    0.32003   1.00
H2       1.03105    0.27076    0.02817   1.00
H2       1.00551    0.31565    0.04495   1.00
H2       1.05293    0.30144    0.06728   1.00
H2       0.79387    0.19156    0.43350   1.00
H2       0.82344    0.15363    0.40827   1.00
H2       0.84423    0.18055    0.45060   1.00
H2       0.95634    0.07605    0.17407   1.00
H2       0.96884    0.03920    0.21196   1.00
H2       0.91990    0.06273    0.21207   1.00
C5       0.70152    -0.13218   0.36715   1.00
H2       0.68054    -0.14745   0.34776   1.00
H2       0.68397    -0.11090   0.38418   1.00
C5       0.72100    -0.16194   0.39459   1.00
C5       0.69436    -0.17123   0.42955   1.00
H2       0.74919    -0.15015   0.40559   1.00
O3       0.80985    0.02000    0.28786   1.00
C4       0.74982    -0.02100   0.24962   1.00
C3c      0.73057    -0.04243   0.27877   1.00
H1       0.71524    -0.02725   0.30178   1.00
C3d      0.76914    -0.04135   0.21959   1.00
C3       0.73121    -0.08354   0.27908   1.00
O2       0.70784    -0.10248   0.30568   1.00
C3       0.77047    -0.08227   0.22022   1.00
H1       0.78681    -0.09657   0.19735   1.00
C2       0.75152    -0.10439   0.24972   1.00
C5       0.84472    0.02121    0.26594   1.00
H2       0.85532    0.05162    0.26137   1.00
H2       0.84070    0.00734    0.23675   1.00
C5       0.87568    -0.00129   0.28861   1.00
H2       0.86462    -0.03137   0.29413   1.00
H2       0.87971    0.01302    0.31754   1.00
C5       0.91447    -0.00262   0.26600   1.00
H2       0.92555    0.02732    0.26014   1.00
H2       0.91078    -0.01811   0.23770   1.00
C5       0.94553    -0.02445   0.29002   1.00
C5       0.76674    -0.01105   0.16037   1.00
C5       0.72937    -0.11070   0.33991   1.00
H2       0.74317    0.00912    0.16992   1.00
H2       0.75313    -0.03712   0.14640   1.00
H2       0.73953    -0.08300   0.35368   1.00
H2       0.75579    -0.12895   0.33398   1.00
H2       0.72639    -0.19030   0.37938   1.00
H2       0.75239    0.05753    0.11344   1.00
H2       0.74551    0.01237    0.08647   1.00
C2       0.75264    0.10395    0.24953   1.00
C3       0.72115    0.08403    0.23196   1.00
O2       0.69653    0.10326    0.20657   1.00
C3       0.78177    0.08174    0.26858   1.00
H1       0.80572    0.09615    0.28318   1.00
C3a      0.71998    0.04287    0.23289   1.00
H1       0.69688    0.02798    0.21739   1.00
C3b      0.78118    0.04078    0.26838   1.00
C4       0.75018    0.02100    0.25038   1.00
O3       0.79099    -0.02167   0.19190   1.00
C5       0.66121    0.11280    0.22546   1.00
H2       0.64601    0.08609    0.23630   1.00
C5       0.63551    0.13326    0.19546   1.00
H2       0.66647    0.13274    0.25061   1.00
H2       0.62191    0.11068    0.17646   1.00
H2       0.65500    0.15093    0.17637   1.00
C5       0.60396    0.15918    0.21420   1.00
H2       0.58676    0.14176    0.23547   1.00
C5       0.57609    0.17547    0.18296   1.00
H2       0.61714    0.18493    0.22931   1.00
C5       0.79212    0.00983    0.13039   1.00
H2       0.81125    -0.01215   0.11599   1.00
H2       0.81164    0.03048    0.14619   1.00
C5       0.76754    0.03200    0.10002   1.00
C5       0.79408    0.04775    0.06738   1.00
H2       0.67090    -0.19286   0.42018   1.00
H2       0.71249    -0.18447   0.45409   1.00
H2       0.67997    -0.14323   0.44027   1.00
H2       0.97183    -0.03105   0.27076   1.00
H2       0.95505    -0.00551   0.31565   1.00
H2       0.93272    -0.05293   0.30144   1.00
H2       0.56650    0.20613    0.19156   1.00
H2       0.59173    0.17656    0.15363   1.00
H2       0.54940    0.15577    0.18055   1.00
H2       0.82593    0.04366    0.07605   1.00
H2       0.78804    0.03116    0.03920   1.00
H2       0.78793    0.08010    0.06273   1.00
C5       0.86715    0.20152    -0.13218   1.00
H2       0.84776    0.18054    -0.14745   1.00
H2       0.88418    0.18397    -0.11090   1.00
C5       0.89459    0.22100    -0.16194   1.00
C5       0.92955    0.19436    -0.17123   1.00
H2       0.90559    0.24919    -0.15015   1.00
O3       0.78786    0.30985    0.02000   1.00
C4       0.74962    0.24982    -0.02100   1.00
C3c      0.77877    0.23057    -0.04243   1.00
H1       0.80178    0.21524    -0.02725   1.00
C3d      0.71959    0.26914    -0.04135   1.00
C3       0.77908    0.23121    -0.08354   1.00
O2       0.80568    0.20784    -0.10248   1.00
C3       0.72022    0.27047    -0.08227   1.00
H1       0.69735    0.28681    -0.09657   1.00
C2       0.74972    0.25152    -0.10439   1.00
C5       0.76594    0.34472    0.02121   1.00
H2       0.76137    0.35532    0.05162   1.00
H2       0.73675    0.34070    0.00734   1.00
C5       0.78861    0.37568    -0.00129   1.00
H2       0.79413    0.36462    -0.03137   1.00
H2       0.81754    0.37971    0.01302   1.00
C5       0.76600    0.41447    -0.00262   1.00
H2       0.76014    0.42555    0.02732   1.00
H2       0.73770    0.41078    -0.01811   1.00
C5       0.79002    0.44553    -0.02445   1.00
C5       0.66037    0.26674    -0.01105   1.00
C5       0.83991    0.22937    -0.11070   1.00
H2       0.66992    0.24317    0.00912   1.00
H2       0.64640    0.25313    -0.03712   1.00
H2       0.85368    0.23953    -0.08300   1.00
H2       0.83398    0.25579    -0.12895   1.00
H2       0.87938    0.22639    -0.19030   1.00
H2       0.61344    0.25239    0.05753   1.00
H2       0.58647    0.24551    0.01237   1.00
C2       0.74953    0.25264    0.10395   1.00
C3       0.73196    0.22115    0.08403   1.00
O2       0.70657    0.19653    0.10326   1.00
C3       0.76858    0.28177    0.08174   1.00
H1       0.78318    0.30572    0.09615   1.00
C3a      0.73289    0.21998    0.04287   1.00
H1       0.71739    0.19688    0.02798   1.00
C3b      0.76838    0.28118    0.04078   1.00
C4       0.75038    0.25018    0.02100   1.00
O3       0.69190    0.29099    -0.02167   1.00
C5       0.72546    0.16121    0.11280   1.00
H2       0.73630    0.14601    0.08609   1.00
C5       0.69546    0.13551    0.13326   1.00
H2       0.75061    0.16647    0.13274   1.00
H2       0.67646    0.12191    0.11068   1.00
H2       0.67637    0.15500    0.15093   1.00
C5       0.71420    0.10396    0.15918   1.00
H2       0.73547    0.08676    0.14176   1.00
C5       0.68296    0.07609    0.17547   1.00
H2       0.72931    0.11714    0.18493   1.00
C5       0.63039    0.29212    0.00983   1.00
H2       0.61599    0.31125    -0.01215   1.00
H2       0.64619    0.31164    0.03048   1.00
C5       0.60002    0.26754    0.03200   1.00
C5       0.56738    0.29408    0.04775   1.00
H2       0.92018    0.17090    -0.19286   1.00
H2       0.95409    0.21249    -0.18447   1.00
H2       0.94027    0.17997    -0.14323   1.00
H2       0.77076    0.47183    -0.03105   1.00
H2       0.81565    0.45505    -0.00551   1.00
H2       0.80144    0.43272    -0.05293   1.00
H2       0.69156    0.06650    0.20613   1.00
H2       0.65363    0.09173    0.17656   1.00
H2       0.68055    0.04940    0.15577   1.00
H2       0.57605    0.32593    0.04366   1.00
H2       0.53920    0.28804    0.03116   1.00
H2       0.56273    0.28793    0.08010   1.00
C5       1.03215    0.96348    1.29718   1.00
H2       1.01276    0.98446    1.31245   1.00
H2       1.04918    0.98103    1.27590   1.00
C5       1.05959    0.94400    1.32694   1.00
C5       1.09455    0.97064    1.33623   1.00
H2       1.07059    0.91581    1.31515   1.00
O3       0.95286    0.85515    1.14500   1.00
C4       0.91462    0.91518    1.18600   1.00
C3c      0.94377    0.93443    1.20743   1.00
H1       0.96678    0.94976    1.19225   1.00
C3d      0.88459    0.89586    1.20635   1.00
C3       0.94408    0.93379    1.24854   1.00
O2       0.97068    0.95716    1.26748   1.00
C3       0.88522    0.89453    1.24727   1.00
H1       0.86235    0.87819    1.26157   1.00
C2       0.91472    0.91348    1.26939   1.00
C5       0.93094    0.82028    1.14379   1.00
H2       0.92637    0.80968    1.11338   1.00
H2       0.90175    0.82430    1.15766   1.00
C5       0.95361    0.78932    1.16629   1.00
H2       0.95913    0.80038    1.19637   1.00
H2       0.98254    0.78529    1.15198   1.00
C5       0.93100    0.75053    1.16762   1.00
H2       0.92514    0.73945    1.13768   1.00
H2       0.90270    0.75422    1.18311   1.00
C5       0.95502    0.71947    1.18945   1.00
C5       0.82537    0.89826    1.17605   1.00
C5       1.00491    0.93563    1.27570   1.00
H2       0.83492    0.92183    1.15588   1.00
H2       0.81140    0.91187    1.20212   1.00
H2       1.01868    0.92547    1.24800   1.00
H2       0.99898    0.90921    1.29395   1.00
H2       1.04438    0.93861    1.35530   1.00
H2       0.77844    0.91261    1.10747   1.00
H2       0.75147    0.91949    1.15263   1.00
C2       0.91453    0.91236    1.06105   1.00
C3       0.89696    0.94385    1.08097   1.00
O2       0.87157    0.96847    1.06174   1.00
C3       0.93358    0.88323    1.08326   1.00
H1       0.94818    0.85928    1.06885   1.00
C3a      0.89789    0.94502    1.12213   1.00
H1       0.88239    0.96812    1.13702   1.00
C3b      0.93338    0.88382    1.12422   1.00
C4       0.91538    0.91482    1.14400   1.00
O3       0.85690    0.87401    1.18667   1.00
C5       0.89046    1.00379    1.05220   1.00
H2       0.90130    1.01899    1.07891   1.00
C5       0.86046    1.02949    1.03174   1.00
H2       0.91561    0.99853    1.03226   1.00
H2       0.84146    1.04309    1.05432   1.00
H2       0.84137    1.01000    1.01407   1.00
C5       0.87920    1.06104    1.00582   1.00
H2       0.90047    1.07824    1.02324   1.00
C5       0.84796    1.08891    0.98953   1.00
H2       0.89431    1.04786    0.98007   1.00
C5       0.79539    0.87288    1.15517   1.00
H2       0.78099    0.85375    1.17715   1.00
H2       0.81119    0.85336    1.13452   1.00
C5       0.76502    0.89746    1.13300   1.00
C5       0.73238    0.87092    1.11725   1.00
H2       1.08518    0.99410    1.35786   1.00
H2       1.11909    0.95251    1.34947   1.00
H2       1.10527    0.98503    1.30823   1.00
H2       0.93576    0.69317    1.19605   1.00
H2       0.98065    0.70995    1.17051   1.00
H2       0.96644    0.73228    1.21793   1.00
H2       0.85656    1.09850    0.95887   1.00
H2       0.81863    1.07327    0.98844   1.00
H2       0.84555    1.11560    1.00923   1.00
H2       0.74105    0.83907    1.12134   1.00
H2       0.70420    0.87696    1.13384   1.00
H2       0.72773    0.87707    1.08490   1.00
C5       0.96348    1.29718    1.03215   1.00
H2       0.98446    1.31245    1.01276   1.00
H2       0.98103    1.27590    1.04918   1.00
C5       0.94400    1.32694    1.05959   1.00
C5       0.97064    1.33623    1.09455   1.00
H2       0.91581    1.31515    1.07059   1.00
O3       0.85515    1.14500    0.95286   1.00
C4       0.91518    1.18600    0.91462   1.00
C3c      0.93443    1.20743    0.94377   1.00
H1       0.94976    1.19225    0.96678   1.00
C3d      0.89586    1.20635    0.88459   1.00
C3       0.93379    1.24854    0.94408   1.00
O2       0.95716    1.26748    0.97068   1.00
C3       0.89453    1.24727    0.88522   1.00
H1       0.87819    1.26157    0.86235   1.00
C2       0.91348    1.26939    0.91472   1.00
C5       0.82028    1.14379    0.93094   1.00
H2       0.80968    1.11338    0.92637   1.00
H2       0.82430    1.15766    0.90175   1.00
C5       0.78932    1.16629    0.95361   1.00
H2       0.80038    1.19637    0.95913   1.00
H2       0.78529    1.15198    0.98254   1.00
C5       0.75053    1.16762    0.93100   1.00
H2       0.73945    1.13768    0.92514   1.00
H2       0.75422    1.18311    0.90270   1.00
C5       0.71947    1.18945    0.95502   1.00
C5       0.89826    1.17605    0.82537   1.00
C5       0.93563    1.27570    1.00491   1.00
H2       0.92183    1.15588    0.83492   1.00
H2       0.91187    1.20212    0.81140   1.00
H2       0.92547    1.24800    1.01868   1.00
H2       0.90921    1.29395    0.99898   1.00
H2       0.93861    1.35530    1.04438   1.00
H2       0.91261    1.10747    0.77844   1.00
H2       0.91949    1.15263    0.75147   1.00
C2       0.91236    1.06105    0.91453   1.00
C3       0.94385    1.08097    0.89696   1.00
O2       0.96847    1.06174    0.87157   1.00
C3       0.88323    1.08326    0.93358   1.00
H1       0.85928    1.06885    0.94818   1.00
C3a      0.94502    1.12213    0.89789   1.00
H1       0.96812    1.13702    0.88239   1.00
C3b      0.88382    1.12422    0.93338   1.00
C4       0.91482    1.14400    0.91538   1.00
O3       0.87401    1.18667    0.85690   1.00
C5       1.00379    1.05220    0.89046   1.00
H2       1.01899    1.07891    0.90130   1.00
C5       1.02949    1.03174    0.86046   1.00
H2       0.99853    1.03226    0.91561   1.00
H2       1.04309    1.05432    0.84146   1.00
H2       1.01000    1.01407    0.84137   1.00
C5       1.06104    1.00582    0.87920   1.00
H2       1.07824    1.02324    0.90047   1.00
C5       1.08891    0.98953    0.84796   1.00
H2       1.04786    0.98007    0.89431   1.00
C5       0.87288    1.15517    0.79539   1.00
H2       0.85375    1.17715    0.78099   1.00
H2       0.85336    1.13452    0.81119   1.00
C5       0.89746    1.13300    0.76502   1.00
C5       0.87092    1.11725    0.73238   1.00
H2       0.99410    1.35786    1.08518   1.00
H2       0.95251    1.34947    1.11909   1.00
H2       0.98503    1.30823    1.10527   1.00
H2       0.69317    1.19605    0.93576   1.00
H2       0.70995    1.17051    0.98065   1.00
H2       0.73228    1.21793    0.96644   1.00
H2       1.09850    0.95887    0.85656   1.00
H2       1.07327    0.98844    0.81863   1.00
H2       1.11560    1.00923    0.84555   1.00
H2       0.83907    1.12134    0.74105   1.00
H2       0.87696    1.13384    0.70420   1.00
H2       0.87707    1.08490    0.72773   1.00
C5       0.53282    1.03215    0.86652   1.00
H2       0.51755    1.01276    0.84554   1.00
H2       0.55410    1.04918    0.84897   1.00
C5       0.50306    1.05959    0.88600   1.00
C5       0.49377    1.09455    0.85936   1.00
H2       0.51485    1.07059    0.91419   1.00
O3       0.68500    0.95286    0.97485   1.00
C4       0.64400    0.91462    0.91482   1.00
C3c      0.62257    0.94377    0.89557   1.00
H1       0.63775    0.96678    0.88024   1.00
C3d      0.62365    0.88459    0.93414   1.00
C3       0.58146    0.94408    0.89621   1.00
O2       0.56252    0.97068    0.87284   1.00
C3       0.58273    0.88522    0.93547   1.00
H1       0.56843    0.86235    0.95181   1.00
C2       0.56061    0.91472    0.91652   1.00
C5       0.68621    0.93094    1.00972   1.00
H2       0.71662    0.92637    1.02032   1.00
H2       0.67234    0.90175    1.00570   1.00
C5       0.66371    0.95361    1.04068   1.00
H2       0.63363    0.95913    1.02962   1.00
H2       0.67802    0.98254    1.04471   1.00
C5       0.66238    0.93100    1.07947   1.00
H2       0.69232    0.92514    1.09055   1.00
H2       0.64689    0.90270    1.07578   1.00
C5       0.64055    0.95502    1.11053   1.00
C5       0.65395    0.82537    0.93174   1.00
C5       0.55430    1.00491    0.89437   1.00
H2       0.67412    0.83492    0.90817   1.00
H2       0.62788    0.81140    0.91813   1.00
H2       0.58200    1.01868    0.90453   1.00
H2       0.53605    0.99898    0.92079   1.00
H2       0.47470    1.04438    0.89139   1.00
H2       0.72253    0.77844    0.91739   1.00
H2       0.67737    0.75147    0.91051   1.00
C2       0.76895    0.91453    0.91764   1.00
C3       0.74903    0.89696    0.88615   1.00
O2       0.76826    0.87157    0.86153   1.00
C3       0.74674    0.93358    0.94677   1.00
H1       0.76115    0.94818    0.97072   1.00
C3a      0.70787    0.89789    0.88498   1.00
H1       0.69298    0.88239    0.86188   1.00
C3b      0.70578    0.93338    0.94618   1.00
C4       0.68600    0.91538    0.91518   1.00
O3       0.64333    0.85690    0.95599   1.00
C5       0.77780    0.89046    0.82621   1.00
H2       0.75109    0.90130    0.81101   1.00
C5       0.79826    0.86046    0.80051   1.00
H2       0.79774    0.91561    0.83147   1.00
H2       0.77568    0.84146    0.78691   1.00
H2       0.81593    0.84137    0.82000   1.00
C5       0.82418    0.87920    0.76896   1.00
H2       0.80676    0.90047    0.75176   1.00
C5       0.84047    0.84796    0.74109   1.00
H2       0.84993    0.89431    0.78214   1.00
C5       0.67483    0.79539    0.95712   1.00
H2       0.65285    0.78099    0.97625   1.00
H2       0.69548    0.81119    0.97664   1.00
C5       0.69700    0.76502    0.93254   1.00
C5       0.71275    0.73238    0.95908   1.00
H2       0.47214    1.08518    0.83590   1.00
H2       0.48053    1.11909    0.87749   1.00
H2       0.52177    1.10527    0.84497   1.00
H2       0.63395    0.93576    1.13683   1.00
H2       0.65949    0.98065    1.12005   1.00
H2       0.61207    0.96644    1.09772   1.00
H2       0.87113    0.85656    0.73150   1.00
H2       0.84156    0.81863    0.75673   1.00
H2       0.82077    0.84555    0.71440   1.00
H2       0.70866    0.74105    0.99093   1.00
H2       0.69616    0.70420    0.95304   1.00
H2       0.74510    0.72773    0.95293   1.00
C5       1.29718    1.03215    0.96348   1.00
H2       1.31245    1.01276    0.98446   1.00
H2       1.27590    1.04918    0.98103   1.00
C5       1.32694    1.05959    0.94400   1.00
C5       1.33623    1.09455    0.97064   1.00
H2       1.31515    1.07059    0.91581   1.00
O3       1.14500    0.95286    0.85515   1.00
C4       1.18600    0.91462    0.91518   1.00
C3c      1.20743    0.94377    0.93443   1.00
H1       1.19225    0.96678    0.94976   1.00
C3d      1.20635    0.88459    0.89586   1.00
C3       1.24854    0.94408    0.93379   1.00
O2       1.26748    0.97068    0.95716   1.00
C3       1.24727    0.88522    0.89453   1.00
H1       1.26157    0.86235    0.87819   1.00
C2       1.26939    0.91472    0.91348   1.00
C5       1.14379    0.93094    0.82028   1.00
H2       1.11338    0.92637    0.80968   1.00
H2       1.15766    0.90175    0.82430   1.00
C5       1.16629    0.95361    0.78932   1.00
H2       1.19637    0.95913    0.80038   1.00
H2       1.15198    0.98254    0.78529   1.00
C5       1.16762    0.93100    0.75053   1.00
H2       1.13768    0.92514    0.73945   1.00
H2       1.18311    0.90270    0.75422   1.00
C5       1.18945    0.95502    0.71947   1.00
C5       1.17605    0.82537    0.89826   1.00
C5       1.27570    1.00491    0.93563   1.00
H2       1.15588    0.83492    0.92183   1.00
H2       1.20212    0.81140    0.91187   1.00
H2       1.24800    1.01868    0.92547   1.00
H2       1.29395    0.99898    0.90921   1.00
H2       1.35530    1.04438    0.93861   1.00
H2       1.10747    0.77844    0.91261   1.00
H2       1.15263    0.75147    0.91949   1.00
C2       1.06105    0.91453    0.91236   1.00
C3       1.08097    0.89696    0.94385   1.00
O2       1.06174    0.87157    0.96847   1.00
C3       1.08326    0.93358    0.88323   1.00
H1       1.06885    0.94818    0.85928   1.00
C3a      1.12213    0.89789    0.94502   1.00
H1       1.13702    0.88239    0.96812   1.00
C3b      1.12422    0.93338    0.88382   1.00
C4       1.14400    0.91538    0.91482   1.00
O3       1.18667    0.85690    0.87401   1.00
C5       1.05220    0.89046    1.00379   1.00
H2       1.07891    0.90130    1.01899   1.00
C5       1.03174    0.86046    1.02949   1.00
H2       1.03226    0.91561    0.99853   1.00
H2       1.05432    0.84146    1.04309   1.00
H2       1.01407    0.84137    1.01000   1.00
C5       1.00582    0.87920    1.06104   1.00
H2       1.02324    0.90047    1.07824   1.00
C5       0.98953    0.84796    1.08891   1.00
H2       0.98007    0.89431    1.04786   1.00
C5       1.15517    0.79539    0.87288   1.00
H2       1.17715    0.78099    0.85375   1.00
H2       1.13452    0.81119    0.85336   1.00
C5       1.13300    0.76502    0.89746   1.00
C5       1.11725    0.73238    0.87092   1.00
H2       1.35786    1.08518    0.99410   1.00
H2       1.34947    1.11909    0.95251   1.00
H2       1.30823    1.10527    0.98503   1.00
H2       1.19605    0.93576    0.69317   1.00
H2       1.17051    0.98065    0.70995   1.00
H2       1.21793    0.96644    0.73228   1.00
H2       0.95887    0.85656    1.09850   1.00
H2       0.98844    0.81863    1.07327   1.00
H2       1.00923    0.84555    1.11560   1.00
H2       1.12134    0.74105    0.83907   1.00
H2       1.13384    0.70420    0.87696   1.00
H2       1.08490    0.72773    0.87707   1.00
C5       0.86652    0.53282    1.03215   1.00
H2       0.84554    0.51755    1.01276   1.00
H2       0.84897    0.55410    1.04918   1.00
C5       0.88600    0.50306    1.05959   1.00
C5       0.85936    0.49377    1.09455   1.00
H2       0.91419    0.51485    1.07059   1.00
O3       0.97485    0.68500    0.95286   1.00
C4       0.91482    0.64400    0.91462   1.00
C3c      0.89557    0.62257    0.94377   1.00
H1       0.88024    0.63775    0.96678   1.00
C3d      0.93414    0.62365    0.88459   1.00
C3       0.89621    0.58146    0.94408   1.00
O2       0.87284    0.56252    0.97068   1.00
C3       0.93547    0.58273    0.88522   1.00
H1       0.95181    0.56843    0.86235   1.00
C2       0.91652    0.56061    0.91472   1.00
C5       1.00972    0.68621    0.93094   1.00
H2       1.02032    0.71662    0.92637   1.00
H2       1.00570    0.67234    0.90175   1.00
C5       1.04068    0.66371    0.95361   1.00
H2       1.02962    0.63363    0.95913   1.00
H2       1.04471    0.67802    0.98254   1.00
C5       1.07947    0.66238    0.93100   1.00
H2       1.09055    0.69232    0.92514   1.00
H2       1.07578    0.64689    0.90270   1.00
C5       1.11053    0.64055    0.95502   1.00
C5       0.93174    0.65395    0.82537   1.00
C5       0.89437    0.55430    1.00491   1.00
H2       0.90817    0.67412    0.83492   1.00
H2       0.91813    0.62788    0.81140   1.00
H2       0.90453    0.58200    1.01868   1.00
H2       0.92079    0.53605    0.99898   1.00
H2       0.89139    0.47470    1.04438   1.00
H2       0.91739    0.72253    0.77844   1.00
H2       0.91051    0.67737    0.75147   1.00
C2       0.91764    0.76895    0.91453   1.00
C3       0.88615    0.74903    0.89696   1.00
O2       0.86153    0.76826    0.87157   1.00
C3       0.94677    0.74674    0.93358   1.00
H1       0.97072    0.76115    0.94818   1.00
C3a      0.88498    0.70787    0.89789   1.00
H1       0.86188    0.69298    0.88239   1.00
C3b      0.94618    0.70578    0.93338   1.00
C4       0.91518    0.68600    0.91538   1.00
O3       0.95599    0.64333    0.85690   1.00
C5       0.82621    0.77780    0.89046   1.00
H2       0.81101    0.75109    0.90130   1.00
C5       0.80051    0.79826    0.86046   1.00
H2       0.83147    0.79774    0.91561   1.00
H2       0.78691    0.77568    0.84146   1.00
H2       0.82000    0.81593    0.84137   1.00
C5       0.76896    0.82418    0.87920   1.00
H2       0.75176    0.80676    0.90047   1.00
C5       0.74109    0.84047    0.84796   1.00
H2       0.78214    0.84993    0.89431   1.00
C5       0.95712    0.67483    0.79539   1.00
H2       0.97625    0.65285    0.78099   1.00
H2       0.97664    0.69548    0.81119   1.00
C5       0.93254    0.69700    0.76502   1.00
C5       0.95908    0.71275    0.73238   1.00
H2       0.83590    0.47214    1.08518   1.00
H2       0.87749    0.48053    1.11909   1.00
H2       0.84497    0.52177    1.10527   1.00
H2       1.13683    0.63395    0.93576   1.00
H2       1.12005    0.65949    0.98065   1.00
H2       1.09772    0.61207    0.96644   1.00
H2       0.73150    0.87113    0.85656   1.00
H2       0.75673    0.84156    0.81863   1.00
H2       0.71440    0.82077    0.84555   1.00
H2       0.99093    0.70866    0.74105   1.00
H2       0.95304    0.69616    0.70420   1.00
H2       0.95293    0.74510    0.72773   1.00
C5       1.03215    0.86652    0.53282   1.00
H2       1.01276    0.84554    0.51755   1.00
H2       1.04918    0.84897    0.55410   1.00
C5       1.05959    0.88600    0.50306   1.00
C5       1.09455    0.85936    0.49377   1.00
H2       1.07059    0.91419    0.51485   1.00
O3       0.95286    0.97485    0.68500   1.00
C4       0.91462    0.91482    0.64400   1.00
C3c      0.94377    0.89557    0.62257   1.00
H1       0.96678    0.88024    0.63775   1.00
C3d      0.88459    0.93414    0.62365   1.00
C3       0.94408    0.89621    0.58146   1.00
O2       0.97068    0.87284    0.56252   1.00
C3       0.88522    0.93547    0.58273   1.00
H1       0.86235    0.95181    0.56843   1.00
C2       0.91472    0.91652    0.56061   1.00
C5       0.93094    1.00972    0.68621   1.00
H2       0.92637    1.02032    0.71662   1.00
H2       0.90175    1.00570    0.67234   1.00
C5       0.95361    1.04068    0.66371   1.00
H2       0.95913    1.02962    0.63363   1.00
H2       0.98254    1.04471    0.67802   1.00
C5       0.93100    1.07947    0.66238   1.00
H2       0.92514    1.09055    0.69232   1.00
H2       0.90270    1.07578    0.64689   1.00
C5       0.95502    1.11053    0.64055   1.00
C5       0.82537    0.93174    0.65395   1.00
C5       1.00491    0.89437    0.55430   1.00
H2       0.83492    0.90817    0.67412   1.00
H2       0.81140    0.91813    0.62788   1.00
H2       1.01868    0.90453    0.58200   1.00
H2       0.99898    0.92079    0.53605   1.00
H2       1.04438    0.89139    0.47470   1.00
H2       0.77844    0.91739    0.72253   1.00
H2       0.75147    0.91051    0.67737   1.00
C2       0.91453    0.91764    0.76895   1.00
C3       0.89696    0.88615    0.74903   1.00
O2       0.87157    0.86153    0.76826   1.00
C3       0.93358    0.94677    0.74674   1.00
H1       0.94818    0.97072    0.76115   1.00
C3a      0.89789    0.88498    0.70787   1.00
H1       0.88239    0.86188    0.69298   1.00
C3b      0.93338    0.94618    0.70578   1.00
C4       0.91538    0.91518    0.68600   1.00
O3       0.85690    0.95599    0.64333   1.00
C5       0.89046    0.82621    0.77780   1.00
H2       0.90130    0.81101    0.75109   1.00
C5       0.86046    0.80051    0.79826   1.00
H2       0.91561    0.83147    0.79774   1.00
H2       0.84146    0.78691    0.77568   1.00
H2       0.84137    0.82000    0.81593   1.00
C5       0.87920    0.76896    0.82418   1.00
H2       0.90047    0.75176    0.80676   1.00
C5       0.84796    0.74109    0.84047   1.00
H2       0.89431    0.78214    0.84993   1.00
C5       0.79539    0.95712    0.67483   1.00
H2       0.78099    0.97625    0.65285   1.00
H2       0.81119    0.97664    0.69548   1.00
C5       0.76502    0.93254    0.69700   1.00
C5       0.73238    0.95908    0.71275   1.00
H2       1.08518    0.83590    0.47214   1.00
H2       1.11909    0.87749    0.48053   1.00
H2       1.10527    0.84497    0.52177   1.00
H2       0.93576    1.13683    0.63395   1.00
H2       0.98065    1.12005    0.65949   1.00
H2       0.96644    1.09772    0.61207   1.00
H2       0.85656    0.73150    0.87113   1.00
H2       0.81863    0.75673    0.84156   1.00
H2       0.84555    0.71440    0.82077   1.00
H2       0.74105    0.99093    0.70866   1.00
H2       0.70420    0.95304    0.69616   1.00
H2       0.72773    0.95293    0.74510   1.00
C5       0.53215    0.46348    1.29718   1.00
H2       0.51276    0.48446    1.31245   1.00
H2       0.54918    0.48103    1.27590   1.00
C5       0.55959    0.44400    1.32694   1.00
C5       0.59455    0.47064    1.33623   1.00
H2       0.57059    0.41581    1.31515   1.00
O3       0.45286    0.35515    1.14500   1.00
C4       0.41462    0.41518    1.18600   1.00
C3c      0.44377    0.43443    1.20743   1.00
H1       0.46678    0.44976    1.19225   1.00
C3d      0.38459    0.39586    1.20635   1.00
C3       0.44408    0.43379    1.24854   1.00
O2       0.47068    0.45716    1.26748   1.00
C3       0.38522    0.39453    1.24727   1.00
H1       0.36235    0.37819    1.26157   1.00
C2       0.41472    0.41348    1.26939   1.00
C5       0.43094    0.32028    1.14379   1.00
H2       0.42637    0.30968    1.11338   1.00
H2       0.40175    0.32430    1.15766   1.00
C5       0.45361    0.28932    1.16629   1.00
H2       0.45913    0.30038    1.19637   1.00
H2       0.48254    0.28529    1.15198   1.00
C5       0.43100    0.25053    1.16762   1.00
H2       0.42514    0.23945    1.13768   1.00
H2       0.40270    0.25422    1.18311   1.00
C5       0.45502    0.21947    1.18945   1.00
C5       0.32537    0.39826    1.17605   1.00
C5       0.50491    0.43563    1.27570   1.00
H2       0.33492    0.42183    1.15588   1.00
H2       0.31140    0.41187    1.20212   1.00
H2       0.51868    0.42547    1.24800   1.00
H2       0.49898    0.40921    1.29395   1.00
H2       0.54438    0.43861    1.35530   1.00
H2       0.27844    0.41261    1.10747   1.00
H2       0.25147    0.41949    1.15263   1.00
C2       0.41453    0.41236    1.06105   1.00
C3       0.39696    0.44385    1.08097   1.00
O2       0.37157    0.46847    1.06174   1.00
C3       0.43358    0.38323    1.08326   1.00
H1       0.44818    0.35928    1.06885   1.00
C3a      0.39789    0.44502    1.12213   1.00
H1       0.38239    0.46812    1.13702   1.00
C3b      0.43338    0.38382    1.12422   1.00
C4       0.41538    0.41482    1.14400   1.00
O3       0.35690    0.37401    1.18667   1.00
C5       0.39046    0.50379    1.05220   1.00
H2       0.40130    0.51899    1.07891   1.00
C5       0.36046    0.52949    1.03174   1.00
H2       0.41561    0.49853    1.03226   1.00
H2       0.34146    0.54309    1.05432   1.00
H2       0.34137    0.51000    1.01407   1.00
C5       0.37920    0.56104    1.00582   1.00
H2       0.40047    0.57824    1.02324   1.00
C5       0.34796    0.58891    0.98953   1.00
H2       0.39431    0.54786    0.98007   1.00
C5       0.29539    0.37288    1.15517   1.00
H2       0.28099    0.35375    1.17715   1.00
H2       0.31119    0.35336    1.13452   1.00
C5       0.26502    0.39746    1.13300   1.00
C5       0.23238    0.37092    1.11725   1.00
H2       0.58518    0.49410    1.35786   1.00
H2       0.61909    0.45251    1.34947   1.00
H2       0.60527    0.48503    1.30823   1.00
H2       0.43576    0.19317    1.19605   1.00
H2       0.48065    0.20995    1.17051   1.00
H2       0.46644    0.23228    1.21793   1.00
H2       0.35656    0.59850    0.95887   1.00
H2       0.31863    0.57327    0.98844   1.00
H2       0.34555    0.61560    1.00923   1.00
H2       0.24105    0.33907    1.12134   1.00
H2       0.20420    0.37696    1.13384   1.00
H2       0.22773    0.37707    1.08490   1.00
C5       0.46348    0.79718    1.03215   1.00
H2       0.48446    0.81245    1.01276   1.00
H2       0.48103    0.77590    1.04918   1.00
C5       0.44400    0.82694    1.05959   1.00
C5       0.47064    0.83623    1.09455   1.00
H2       0.41581    0.81515    1.07059   1.00
O3       0.35515    0.64500    0.95286   1.00
C4       0.41518    0.68600    0.91462   1.00
C3c      0.43443    0.70743    0.94377   1.00
H1       0.44976    0.69225    0.96678   1.00
C3d      0.39586    0.70635    0.88459   1.00
C3       0.43379    0.74854    0.94408   1.00
O2       0.45716    0.76748    0.97068   1.00
C3       0.39453    0.74727    0.88522   1.00
H1       0.37819    0.76157    0.86235   1.00
C2       0.41348    0.76939    0.91472   1.00
C5       0.32028    0.64379    0.93094   1.00
H2       0.30968    0.61338    0.92637   1.00
H2       0.32430    0.65766    0.90175   1.00
C5       0.28932    0.66629    0.95361   1.00
H2       0.30038    0.69637    0.95913   1.00
H2       0.28529    0.65198    0.98254   1.00
C5       0.25053    0.66762    0.93100   1.00
H2       0.23945    0.63768    0.92514   1.00
H2       0.25422    0.68311    0.90270   1.00
C5       0.21947    0.68945    0.95502   1.00
C5       0.39826    0.67605    0.82537   1.00
C5       0.43563    0.77570    1.00491   1.00
H2       0.42183    0.65588    0.83492   1.00
H2       0.41187    0.70212    0.81140   1.00
H2       0.42547    0.74800    1.01868   1.00
H2       0.40921    0.79395    0.99898   1.00
H2       0.43861    0.85530    1.04438   1.00
H2       0.41261    0.60747    0.77844   1.00
H2       0.41949    0.65263    0.75147   1.00
C2       0.41236    0.56105    0.91453   1.00
C3       0.44385    0.58097    0.89696   1.00
O2       0.46847    0.56174    0.87157   1.00
C3       0.38323    0.58326    0.93358   1.00
H1       0.35928    0.56885    0.94818   1.00
C3a      0.44502    0.62213    0.89789   1.00
H1       0.46812    0.63702    0.88239   1.00
C3b      0.38382    0.62422    0.93338   1.00
C4       0.41482    0.64400    0.91538   1.00
O3       0.37401    0.68667    0.85690   1.00
C5       0.50379    0.55220    0.89046   1.00
H2       0.51899    0.57891    0.90130   1.00
C5       0.52949    0.53174    0.86046   1.00
H2       0.49853    0.53226    0.91561   1.00
H2       0.54309    0.55432    0.84146   1.00
H2       0.51000    0.51407    0.84137   1.00
C5       0.56104    0.50582    0.87920   1.00
H2       0.57824    0.52324    0.90047   1.00
C5       0.58891    0.48953    0.84796   1.00
H2       0.54786    0.48007    0.89431   1.00
C5       0.37288    0.65517    0.79539   1.00
H2       0.35375    0.67715    0.78099   1.00
H2       0.35336    0.63452    0.81119   1.00
C5       0.39746    0.63300    0.76502   1.00
C5       0.37092    0.61725    0.73238   1.00
H2       0.49410    0.85786    1.08518   1.00
H2       0.45251    0.84947    1.11909   1.00
H2       0.48503    0.80823    1.10527   1.00
H2       0.19317    0.69605    0.93576   1.00
H2       0.20995    0.67051    0.98065   1.00
H2       0.23228    0.71793    0.96644   1.00
H2       0.59850    0.45887    0.85656   1.00
H2       0.57327    0.48844    0.81863   1.00
H2       0.61560    0.50923    0.84555   1.00
H2       0.33907    0.62134    0.74105   1.00
H2       0.37696    0.63384    0.70420   1.00
H2       0.37707    0.58490    0.72773   1.00
C5       0.03282    0.53215    0.86652   1.00
H2       0.01755    0.51276    0.84554   1.00
H2       0.05410    0.54918    0.84897   1.00
C5       0.00306    0.55959    0.88600   1.00
C5       -0.00623   0.59455    0.85936   1.00
H2       0.01485    0.57059    0.91419   1.00
O3       0.18500    0.45286    0.97485   1.00
C4       0.14400    0.41462    0.91482   1.00
C3c      0.12257    0.44377    0.89557   1.00
H1       0.13775    0.46678    0.88024   1.00
C3d      0.12365    0.38459    0.93414   1.00
C3       0.08146    0.44408    0.89621   1.00
O2       0.06252    0.47068    0.87284   1.00
C3       0.08273    0.38522    0.93547   1.00
H1       0.06843    0.36235    0.95181   1.00
C2       0.06061    0.41472    0.91652   1.00
C5       0.18621    0.43094    1.00972   1.00
H2       0.21662    0.42637    1.02032   1.00
H2       0.17234    0.40175    1.00570   1.00
C5       0.16371    0.45361    1.04068   1.00
H2       0.13363    0.45913    1.02962   1.00
H2       0.17802    0.48254    1.04471   1.00
C5       0.16238    0.43100    1.07947   1.00
H2       0.19232    0.42514    1.09055   1.00
H2       0.14689    0.40270    1.07578   1.00
C5       0.14055    0.45502    1.11053   1.00
C5       0.15395    0.32537    0.93174   1.00
C5       0.05430    0.50491    0.89437   1.00
H2       0.17412    0.33492    0.90817   1.00
H2       0.12788    0.31140    0.91813   1.00
H2       0.08200    0.51868    0.90453   1.00
H2       0.03605    0.49898    0.92079   1.00
H2       -0.02530   0.54438    0.89139   1.00
H2       0.22253    0.27844    0.91739   1.00
H2       0.17737    0.25147    0.91051   1.00
C2       0.26895    0.41453    0.91764   1.00
C3       0.24903    0.39696    0.88615   1.00
O2       0.26826    0.37157    0.86153   1.00
C3       0.24674    0.43358    0.94677   1.00
H1       0.26115    0.44818    0.97072   1.00
C3a      0.20787    0.39789    0.88498   1.00
H1       0.19298    0.38239    0.86188   1.00
C3b      0.20578    0.43338    0.94618   1.00
C4       0.18600    0.41538    0.91518   1.00
O3       0.14333    0.35690    0.95599   1.00
C5       0.27780    0.39046    0.82621   1.00
H2       0.25109    0.40130    0.81101   1.00
C5       0.29826    0.36046    0.80051   1.00
H2       0.29774    0.41561    0.83147   1.00
H2       0.27568    0.34146    0.78691   1.00
H2       0.31593    0.34137    0.82000   1.00
C5       0.32418    0.37920    0.76896   1.00
H2       0.30676    0.40047    0.75176   1.00
C5       0.34047    0.34796    0.74109   1.00
H2       0.34993    0.39431    0.78214   1.00
C5       0.17483    0.29539    0.95712   1.00
H2       0.15285    0.28099    0.97625   1.00
H2       0.19548    0.31119    0.97664   1.00
C5       0.19700    0.26502    0.93254   1.00
C5       0.21275    0.23238    0.95908   1.00
H2       -0.02786   0.58518    0.83590   1.00
H2       -0.01947   0.61909    0.87749   1.00
H2       0.02177    0.60527    0.84497   1.00
H2       0.13395    0.43576    1.13683   1.00
H2       0.15949    0.48065    1.12005   1.00
H2       0.11207    0.46644    1.09772   1.00
H2       0.37113    0.35656    0.73150   1.00
H2       0.34156    0.31863    0.75673   1.00
H2       0.32077    0.34555    0.71440   1.00
H2       0.20866    0.24105    0.99093   1.00
H2       0.19616    0.20420    0.95304   1.00
H2       0.24510    0.22773    0.95293   1.00
C5       0.79718    0.53215    0.96348   1.00
H2       0.81245    0.51276    0.98446   1.00
H2       0.77590    0.54918    0.98103   1.00
C5       0.82694    0.55959    0.94400   1.00
C5       0.83623    0.59455    0.97064   1.00
H2       0.81515    0.57059    0.91581   1.00
O3       0.64500    0.45286    0.85515   1.00
C4       0.68600    0.41462    0.91518   1.00
C3c      0.70743    0.44377    0.93443   1.00
H1       0.69225    0.46678    0.94976   1.00
C3d      0.70635    0.38459    0.89586   1.00
C3       0.74854    0.44408    0.93379   1.00
O2       0.76748    0.47068    0.95716   1.00
C3       0.74727    0.38522    0.89453   1.00
H1       0.76157    0.36235    0.87819   1.00
C2       0.76939    0.41472    0.91348   1.00
C5       0.64379    0.43094    0.82028   1.00
H2       0.61338    0.42637    0.80968   1.00
H2       0.65766    0.40175    0.82430   1.00
C5       0.66629    0.45361    0.78932   1.00
H2       0.69637    0.45913    0.80038   1.00
H2       0.65198    0.48254    0.78529   1.00
C5       0.66762    0.43100    0.75053   1.00
H2       0.63768    0.42514    0.73945   1.00
H2       0.68311    0.40270    0.75422   1.00
C5       0.68945    0.45502    0.71947   1.00
C5       0.67605    0.32537    0.89826   1.00
C5       0.77570    0.50491    0.93563   1.00
H2       0.65588    0.33492    0.92183   1.00
H2       0.70212    0.31140    0.91187   1.00
H2       0.74800    0.51868    0.92547   1.00
H2       0.79395    0.49898    0.90921   1.00
H2       0.85530    0.54438    0.93861   1.00
H2       0.60747    0.27844    0.91261   1.00
H2       0.65263    0.25147    0.91949   1.00
C2       0.56105    0.41453    0.91236   1.00
C3       0.58097    0.39696    0.94385   1.00
O2       0.56174    0.37157    0.96847   1.00
C3       0.58326    0.43358    0.88323   1.00
H1       0.56885    0.44818    0.85928   1.00
C3a      0.62213    0.39789    0.94502   1.00
H1       0.63702    0.38239    0.96812   1.00
C3b      0.62422    0.43338    0.88382   1.00
C4       0.64400    0.41538    0.91482   1.00
O3       0.68667    0.35690    0.87401   1.00
C5       0.55220    0.39046    1.00379   1.00
H2       0.57891    0.40130    1.01899   1.00
C5       0.53174    0.36046    1.02949   1.00
H2       0.53226    0.41561    0.99853   1.00
H2       0.55432    0.34146    1.04309   1.00
H2       0.51407    0.34137    1.01000   1.00
C5       0.50582    0.37920    1.06104   1.00
H2       0.52324    0.40047    1.07824   1.00
C5       0.48953    0.34796    1.08891   1.00
H2       0.48007    0.39431    1.04786   1.00
C5       0.65517    0.29539    0.87288   1.00
H2       0.67715    0.28099    0.85375   1.00
H2       0.63452    0.31119    0.85336   1.00
C5       0.63300    0.26502    0.89746   1.00
C5       0.61725    0.23238    0.87092   1.00
H2       0.85786    0.58518    0.99410   1.00
H2       0.84947    0.61909    0.95251   1.00
H2       0.80823    0.60527    0.98503   1.00
H2       0.69605    0.43576    0.69317   1.00
H2       0.67051    0.48065    0.70995   1.00
H2       0.71793    0.46644    0.73228   1.00
H2       0.45887    0.35656    1.09850   1.00
H2       0.48844    0.31863    1.07327   1.00
H2       0.50923    0.34555    1.11560   1.00
H2       0.62134    0.24105    0.83907   1.00
H2       0.63384    0.20420    0.87696   1.00
H2       0.58490    0.22773    0.87707   1.00
C5       0.36652    0.03282    1.03215   1.00
H2       0.34554    0.01755    1.01276   1.00
H2       0.34897    0.05410    1.04918   1.00
C5       0.38600    0.00306    1.05959   1.00
C5       0.35936    -0.00623   1.09455   1.00
H2       0.41419    0.01485    1.07059   1.00
O3       0.47485    0.18500    0.95286   1.00
C4       0.41482    0.14400    0.91462   1.00
C3c      0.39557    0.12257    0.94377   1.00
H1       0.38024    0.13775    0.96678   1.00
C3d      0.43414    0.12365    0.88459   1.00
C3       0.39621    0.08146    0.94408   1.00
O2       0.37284    0.06252    0.97068   1.00
C3       0.43547    0.08273    0.88522   1.00
H1       0.45181    0.06843    0.86235   1.00
C2       0.41652    0.06061    0.91472   1.00
C5       0.50972    0.18621    0.93094   1.00
H2       0.52032    0.21662    0.92637   1.00
H2       0.50570    0.17234    0.90175   1.00
C5       0.54068    0.16371    0.95361   1.00
H2       0.52962    0.13363    0.95913   1.00
H2       0.54471    0.17802    0.98254   1.00
C5       0.57947    0.16238    0.93100   1.00
H2       0.59055    0.19232    0.92514   1.00
H2       0.57578    0.14689    0.90270   1.00
C5       0.61053    0.14055    0.95502   1.00
C5       0.43174    0.15395    0.82537   1.00
C5       0.39437    0.05430    1.00491   1.00
H2       0.40817    0.17412    0.83492   1.00
H2       0.41813    0.12788    0.81140   1.00
H2       0.40453    0.08200    1.01868   1.00
H2       0.42079    0.03605    0.99898   1.00
H2       0.39139    -0.02530   1.04438   1.00
H2       0.41739    0.22253    0.77844   1.00
H2       0.41051    0.17737    0.75147   1.00
C2       0.41764    0.26895    0.91453   1.00
C3       0.38615    0.24903    0.89696   1.00
O2       0.36153    0.26826    0.87157   1.00
C3       0.44677    0.24674    0.93358   1.00
H1       0.47072    0.26115    0.94818   1.00
C3a      0.38498    0.20787    0.89789   1.00
H1       0.36188    0.19298    0.88239   1.00
C3b      0.44618    0.20578    0.93338   1.00
C4       0.41518    0.18600    0.91538   1.00
O3       0.45599    0.14333    0.85690   1.00
C5       0.32621    0.27780    0.89046   1.00
H2       0.31101    0.25109    0.90130   1.00
C5       0.30051    0.29826    0.86046   1.00
H2       0.33147    0.29774    0.91561   1.00
H2       0.28691    0.27568    0.84146   1.00
H2       0.32000    0.31593    0.84137   1.00
C5       0.26896    0.32418    0.87920   1.00
H2       0.25176    0.30676    0.90047   1.00
C5       0.24109    0.34047    0.84796   1.00
H2       0.28214    0.34993    0.89431   1.00
C5       0.45712    0.17483    0.79539   1.00
H2       0.47625    0.15285    0.78099   1.00
H2       0.47664    0.19548    0.81119   1.00
C5       0.43254    0.19700    0.76502   1.00
C5       0.45908    0.21275    0.73238   1.00
H2       0.33590    -0.02786   1.08518   1.00
H2       0.37749    -0.01947   1.11909   1.00
H2       0.34497    0.02177    1.10527   1.00
H2       0.63683    0.13395    0.93576   1.00
H2       0.62005    0.15949    0.98065   1.00
H2       0.59772    0.11207    0.96644   1.00
H2       0.23150    0.37113    0.85656   1.00
H2       0.25673    0.34156    0.81863   1.00
H2       0.21440    0.32077    0.84555   1.00
H2       0.49093    0.20866    0.74105   1.00
H2       0.45304    0.19616    0.70420   1.00
H2       0.45293    0.24510    0.72773   1.00
C5       0.53215    0.36652    0.53282   1.00
H2       0.51276    0.34554    0.51755   1.00
H2       0.54918    0.34897    0.55410   1.00
C5       0.55959    0.38600    0.50306   1.00
C5       0.59455    0.35936    0.49377   1.00
H2       0.57059    0.41419    0.51485   1.00
O3       0.45286    0.47485    0.68500   1.00
C4       0.41462    0.41482    0.64400   1.00
C3c      0.44377    0.39557    0.62257   1.00
H1       0.46678    0.38024    0.63775   1.00
C3d      0.38459    0.43414    0.62365   1.00
C3       0.44408    0.39621    0.58146   1.00
O2       0.47068    0.37284    0.56252   1.00
C3       0.38522    0.43547    0.58273   1.00
H1       0.36235    0.45181    0.56843   1.00
C2       0.41472    0.41652    0.56061   1.00
C5       0.43094    0.50972    0.68621   1.00
H2       0.42637    0.52032    0.71662   1.00
H2       0.40175    0.50570    0.67234   1.00
C5       0.45361    0.54068    0.66371   1.00
H2       0.45913    0.52962    0.63363   1.00
H2       0.48254    0.54471    0.67802   1.00
C5       0.43100    0.57947    0.66238   1.00
H2       0.42514    0.59055    0.69232   1.00
H2       0.40270    0.57578    0.64689   1.00
C5       0.45502    0.61053    0.64055   1.00
C5       0.32537    0.43174    0.65395   1.00
C5       0.50491    0.39437    0.55430   1.00
H2       0.33492    0.40817    0.67412   1.00
H2       0.31140    0.41813    0.62788   1.00
H2       0.51868    0.40453    0.58200   1.00
H2       0.49898    0.42079    0.53605   1.00
H2       0.54438    0.39139    0.47470   1.00
H2       0.27844    0.41739    0.72253   1.00
H2       0.25147    0.41051    0.67737   1.00
C2       0.41453    0.41764    0.76895   1.00
C3       0.39696    0.38615    0.74903   1.00
O2       0.37157    0.36153    0.76826   1.00
C3       0.43358    0.44677    0.74674   1.00
H1       0.44818    0.47072    0.76115   1.00
C3a      0.39789    0.38498    0.70787   1.00
H1       0.38239    0.36188    0.69298   1.00
C3b      0.43338    0.44618    0.70578   1.00
C4       0.41538    0.41518    0.68600   1.00
O3       0.35690    0.45599    0.64333   1.00
C5       0.39046    0.32621    0.77780   1.00
H2       0.40130    0.31101    0.75109   1.00
C5       0.36046    0.30051    0.79826   1.00
H2       0.41561    0.33147    0.79774   1.00
H2       0.34146    0.28691    0.77568   1.00
H2       0.34137    0.32000    0.81593   1.00
C5       0.37920    0.26896    0.82418   1.00
H2       0.40047    0.25176    0.80676   1.00
C5       0.34796    0.24109    0.84047   1.00
H2       0.39431    0.28214    0.84993   1.00
C5       0.29539    0.45712    0.67483   1.00
H2       0.28099    0.47625    0.65285   1.00
H2       0.31119    0.47664    0.69548   1.00
C5       0.26502    0.43254    0.69700   1.00
C5       0.23238    0.45908    0.71275   1.00
H2       0.58518    0.33590    0.47214   1.00
H2       0.61909    0.37749    0.48053   1.00
H2       0.60527    0.34497    0.52177   1.00
H2       0.43576    0.63683    0.63395   1.00
H2       0.48065    0.62005    0.65949   1.00
H2       0.46644    0.59772    0.61207   1.00
H2       0.35656    0.23150    0.87113   1.00
H2       0.31863    0.25673    0.84156   1.00
H2       0.34555    0.21440    0.82077   1.00
H2       0.24105    0.49093    0.70866   1.00
H2       0.20420    0.45304    0.69616   1.00
H2       0.22773    0.45293    0.74510   1.00
C5       0.53215    0.96348    0.79718   1.00
H2       0.51276    0.98446    0.81245   1.00
H2       0.54918    0.98103    0.77590   1.00
C5       0.55959    0.94400    0.82694   1.00
C5       0.59455    0.97064    0.83623   1.00
H2       0.57059    0.91581    0.81515   1.00
O3       0.45286    0.85515    0.64500   1.00
C4       0.41462    0.91518    0.68600   1.00
C3c      0.44377    0.93443    0.70743   1.00
H1       0.46678    0.94976    0.69225   1.00
C3d      0.38459    0.89586    0.70635   1.00
C3       0.44408    0.93379    0.74854   1.00
O2       0.47068    0.95716    0.76748   1.00
C3       0.38522    0.89453    0.74727   1.00
H1       0.36235    0.87819    0.76157   1.00
C2       0.41472    0.91348    0.76939   1.00
C5       0.43094    0.82028    0.64379   1.00
H2       0.42637    0.80968    0.61338   1.00
H2       0.40175    0.82430    0.65766   1.00
C5       0.45361    0.78932    0.66629   1.00
H2       0.45913    0.80038    0.69637   1.00
H2       0.48254    0.78529    0.65198   1.00
C5       0.43100    0.75053    0.66762   1.00
H2       0.42514    0.73945    0.63768   1.00
H2       0.40270    0.75422    0.68311   1.00
C5       0.45502    0.71947    0.68945   1.00
C5       0.32537    0.89826    0.67605   1.00
C5       0.50491    0.93563    0.77570   1.00
H2       0.33492    0.92183    0.65588   1.00
H2       0.31140    0.91187    0.70212   1.00
H2       0.51868    0.92547    0.74800   1.00
H2       0.49898    0.90921    0.79395   1.00
H2       0.54438    0.93861    0.85530   1.00
H2       0.27844    0.91261    0.60747   1.00
H2       0.25147    0.91949    0.65263   1.00
C2       0.41453    0.91236    0.56105   1.00
C3       0.39696    0.94385    0.58097   1.00
O2       0.37157    0.96847    0.56174   1.00
C3       0.43358    0.88323    0.58326   1.00
H1       0.44818    0.85928    0.56885   1.00
C3a      0.39789    0.94502    0.62213   1.00
H1       0.38239    0.96812    0.63702   1.00
C3b      0.43338    0.88382    0.62422   1.00
C4       0.41538    0.91482    0.64400   1.00
O3       0.35690    0.87401    0.68667   1.00
C5       0.39046    1.00379    0.55220   1.00
H2       0.40130    1.01899    0.57891   1.00
C5       0.36046    1.02949    0.53174   1.00
H2       0.41561    0.99853    0.53226   1.00
H2       0.34146    1.04309    0.55432   1.00
H2       0.34137    1.01000    0.51407   1.00
C5       0.37920    1.06104    0.50582   1.00
H2       0.40047    1.07824    0.52324   1.00
C5       0.34796    1.08891    0.48953   1.00
H2       0.39431    1.04786    0.48007   1.00
C5       0.29539    0.87288    0.65517   1.00
H2       0.28099    0.85375    0.67715   1.00
H2       0.31119    0.85336    0.63452   1.00
C5       0.26502    0.89746    0.63300   1.00
C5       0.23238    0.87092    0.61725   1.00
H2       0.58518    0.99410    0.85786   1.00
H2       0.61909    0.95251    0.84947   1.00
H2       0.60527    0.98503    0.80823   1.00
H2       0.43576    0.69317    0.69605   1.00
H2       0.48065    0.70995    0.67051   1.00
H2       0.46644    0.73228    0.71793   1.00
H2       0.35656    1.09850    0.45887   1.00
H2       0.31863    1.07327    0.48844   1.00
H2       0.34555    1.11560    0.50923   1.00
H2       0.24105    0.83907    0.62134   1.00
H2       0.20420    0.87696    0.63384   1.00
H2       0.22773    0.87707    0.58490   1.00
C5       0.46348    1.29718    0.53215   1.00
H2       0.48446    1.31245    0.51276   1.00
H2       0.48103    1.27590    0.54918   1.00
C5       0.44400    1.32694    0.55959   1.00
C5       0.47064    1.33623    0.59455   1.00
H2       0.41581    1.31515    0.57059   1.00
O3       0.35515    1.14500    0.45286   1.00
C4       0.41518    1.18600    0.41462   1.00
C3c      0.43443    1.20743    0.44377   1.00
H1       0.44976    1.19225    0.46678   1.00
C3d      0.39586    1.20635    0.38459   1.00
C3       0.43379    1.24854    0.44408   1.00
O2       0.45716    1.26748    0.47068   1.00
C3       0.39453    1.24727    0.38522   1.00
H1       0.37819    1.26157    0.36235   1.00
C2       0.41348    1.26939    0.41472   1.00
C5       0.32028    1.14379    0.43094   1.00
H2       0.30968    1.11338    0.42637   1.00
H2       0.32430    1.15766    0.40175   1.00
C5       0.28932    1.16629    0.45361   1.00
H2       0.30038    1.19637    0.45913   1.00
H2       0.28529    1.15198    0.48254   1.00
C5       0.25053    1.16762    0.43100   1.00
H2       0.23945    1.13768    0.42514   1.00
H2       0.25422    1.18311    0.40270   1.00
C5       0.21947    1.18945    0.45502   1.00
C5       0.39826    1.17605    0.32537   1.00
C5       0.43563    1.27570    0.50491   1.00
H2       0.42183    1.15588    0.33492   1.00
H2       0.41187    1.20212    0.31140   1.00
H2       0.42547    1.24800    0.51868   1.00
H2       0.40921    1.29395    0.49898   1.00
H2       0.43861    1.35530    0.54438   1.00
H2       0.41261    1.10747    0.27844   1.00
H2       0.41949    1.15263    0.25147   1.00
C2       0.41236    1.06105    0.41453   1.00
C3       0.44385    1.08097    0.39696   1.00
O2       0.46847    1.06174    0.37157   1.00
C3       0.38323    1.08326    0.43358   1.00
H1       0.35928    1.06885    0.44818   1.00
C3a      0.44502    1.12213    0.39789   1.00
H1       0.46812    1.13702    0.38239   1.00
C3b      0.38382    1.12422    0.43338   1.00
C4       0.41482    1.14400    0.41538   1.00
O3       0.37401    1.18667    0.35690   1.00
C5       0.50379    1.05220    0.39046   1.00
H2       0.51899    1.07891    0.40130   1.00
C5       0.52949    1.03174    0.36046   1.00
H2       0.49853    1.03226    0.41561   1.00
H2       0.54309    1.05432    0.34146   1.00
H2       0.51000    1.01407    0.34137   1.00
C5       0.56104    1.00582    0.37920   1.00
H2       0.57824    1.02324    0.40047   1.00
C5       0.58891    0.98953    0.34796   1.00
H2       0.54786    0.98007    0.39431   1.00
C5       0.37288    1.15517    0.29539   1.00
H2       0.35375    1.17715    0.28099   1.00
H2       0.35336    1.13452    0.31119   1.00
C5       0.39746    1.13300    0.26502   1.00
C5       0.37092    1.11725    0.23238   1.00
H2       0.49410    1.35786    0.58518   1.00
H2       0.45251    1.34947    0.61909   1.00
H2       0.48503    1.30823    0.60527   1.00
H2       0.19317    1.19605    0.43576   1.00
H2       0.20995    1.17051    0.48065   1.00
H2       0.23228    1.21793    0.46644   1.00
H2       0.59850    0.95887    0.35656   1.00
H2       0.57327    0.98844    0.31863   1.00
H2       0.61560    1.00923    0.34555   1.00
H2       0.33907    1.12134    0.24105   1.00
H2       0.37696    1.13384    0.20420   1.00
H2       0.37707    1.08490    0.22773   1.00
C5       0.03282    1.03215    0.36652   1.00
H2       0.01755    1.01276    0.34554   1.00
H2       0.05410    1.04918    0.34897   1.00
C5       0.00306    1.05959    0.38600   1.00
C5       -0.00623   1.09455    0.35936   1.00
H2       0.01485    1.07059    0.41419   1.00
O3       0.18500    0.95286    0.47485   1.00
C4       0.14400    0.91462    0.41482   1.00
C3c      0.12257    0.94377    0.39557   1.00
H1       0.13775    0.96678    0.38024   1.00
C3d      0.12365    0.88459    0.43414   1.00
C3       0.08146    0.94408    0.39621   1.00
O2       0.06252    0.97068    0.37284   1.00
C3       0.08273    0.88522    0.43547   1.00
H1       0.06843    0.86235    0.45181   1.00
C2       0.06061    0.91472    0.41652   1.00
C5       0.18621    0.93094    0.50972   1.00
H2       0.21662    0.92637    0.52032   1.00
H2       0.17234    0.90175    0.50570   1.00
C5       0.16371    0.95361    0.54068   1.00
H2       0.13363    0.95913    0.52962   1.00
H2       0.17802    0.98254    0.54471   1.00
C5       0.16238    0.93100    0.57947   1.00
H2       0.19232    0.92514    0.59055   1.00
H2       0.14689    0.90270    0.57578   1.00
C5       0.14055    0.95502    0.61053   1.00
C5       0.15395    0.82537    0.43174   1.00
C5       0.05430    1.00491    0.39437   1.00
H2       0.17412    0.83492    0.40817   1.00
H2       0.12788    0.81140    0.41813   1.00
H2       0.08200    1.01868    0.40453   1.00
H2       0.03605    0.99898    0.42079   1.00
H2       -0.02530   1.04438    0.39139   1.00
H2       0.22253    0.77844    0.41739   1.00
H2       0.17737    0.75147    0.41051   1.00
C2       0.26895    0.91453    0.41764   1.00
C3       0.24903    0.89696    0.38615   1.00
O2       0.26826    0.87157    0.36153   1.00
C3       0.24674    0.93358    0.44677   1.00
H1       0.26115    0.94818    0.47072   1.00
C3a      0.20787    0.89789    0.38498   1.00
H1       0.19298    0.88239    0.36188   1.00
C3b      0.20578    0.93338    0.44618   1.00
C4       0.18600    0.91538    0.41518   1.00
O3       0.14333    0.85690    0.45599   1.00
C5       0.27780    0.89046    0.32621   1.00
H2       0.25109    0.90130    0.31101   1.00
C5       0.29826    0.86046    0.30051   1.00
H2       0.29774    0.91561    0.33147   1.00
H2       0.27568    0.84146    0.28691   1.00
H2       0.31593    0.84137    0.32000   1.00
C5       0.32418    0.87920    0.26896   1.00
H2       0.30676    0.90047    0.25176   1.00
C5       0.34047    0.84796    0.24109   1.00
H2       0.34993    0.89431    0.28214   1.00
C5       0.17483    0.79539    0.45712   1.00
H2       0.15285    0.78099    0.47625   1.00
H2       0.19548    0.81119    0.47664   1.00
C5       0.19700    0.76502    0.43254   1.00
C5       0.21275    0.73238    0.45908   1.00
H2       -0.02786   1.08518    0.33590   1.00
H2       -0.01947   1.11909    0.37749   1.00
H2       0.02177    1.10527    0.34497   1.00
H2       0.13395    0.93576    0.63683   1.00
H2       0.15949    0.98065    0.62005   1.00
H2       0.11207    0.96644    0.59772   1.00
H2       0.37113    0.85656    0.23150   1.00
H2       0.34156    0.81863    0.25673   1.00
H2       0.32077    0.84555    0.21440   1.00
H2       0.20866    0.74105    0.49093   1.00
H2       0.19616    0.70420    0.45304   1.00
H2       0.24510    0.72773    0.45293   1.00
C5       0.79718    1.03215    0.46348   1.00
H2       0.81245    1.01276    0.48446   1.00
H2       0.77590    1.04918    0.48103   1.00
C5       0.82694    1.05959    0.44400   1.00
C5       0.83623    1.09455    0.47064   1.00
H2       0.81515    1.07059    0.41581   1.00
O3       0.64500    0.95286    0.35515   1.00
C4       0.68600    0.91462    0.41518   1.00
C3c      0.70743    0.94377    0.43443   1.00
H1       0.69225    0.96678    0.44976   1.00
C3d      0.70635    0.88459    0.39586   1.00
C3       0.74854    0.94408    0.43379   1.00
O2       0.76748    0.97068    0.45716   1.00
C3       0.74727    0.88522    0.39453   1.00
H1       0.76157    0.86235    0.37819   1.00
C2       0.76939    0.91472    0.41348   1.00
C5       0.64379    0.93094    0.32028   1.00
H2       0.61338    0.92637    0.30968   1.00
H2       0.65766    0.90175    0.32430   1.00
C5       0.66629    0.95361    0.28932   1.00
H2       0.69637    0.95913    0.30038   1.00
H2       0.65198    0.98254    0.28529   1.00
C5       0.66762    0.93100    0.25053   1.00
H2       0.63768    0.92514    0.23945   1.00
H2       0.68311    0.90270    0.25422   1.00
C5       0.68945    0.95502    0.21947   1.00
C5       0.67605    0.82537    0.39826   1.00
C5       0.77570    1.00491    0.43563   1.00
H2       0.65588    0.83492    0.42183   1.00
H2       0.70212    0.81140    0.41187   1.00
H2       0.74800    1.01868    0.42547   1.00
H2       0.79395    0.99898    0.40921   1.00
H2       0.85530    1.04438    0.43861   1.00
H2       0.60747    0.77844    0.41261   1.00
H2       0.65263    0.75147    0.41949   1.00
C2       0.56105    0.91453    0.41236   1.00
C3       0.58097    0.89696    0.44385   1.00
O2       0.56174    0.87157    0.46847   1.00
C3       0.58326    0.93358    0.38323   1.00
H1       0.56885    0.94818    0.35928   1.00
C3a      0.62213    0.89789    0.44502   1.00
H1       0.63702    0.88239    0.46812   1.00
C3b      0.62422    0.93338    0.38382   1.00
C4       0.64400    0.91538    0.41482   1.00
O3       0.68667    0.85690    0.37401   1.00
C5       0.55220    0.89046    0.50379   1.00
H2       0.57891    0.90130    0.51899   1.00
C5       0.53174    0.86046    0.52949   1.00
H2       0.53226    0.91561    0.49853   1.00
H2       0.55432    0.84146    0.54309   1.00
H2       0.51407    0.84137    0.51000   1.00
C5       0.50582    0.87920    0.56104   1.00
H2       0.52324    0.90047    0.57824   1.00
C5       0.48953    0.84796    0.58891   1.00
H2       0.48007    0.89431    0.54786   1.00
C5       0.65517    0.79539    0.37288   1.00
H2       0.67715    0.78099    0.35375   1.00
H2       0.63452    0.81119    0.35336   1.00
C5       0.63300    0.76502    0.39746   1.00
C5       0.61725    0.73238    0.37092   1.00
H2       0.85786    1.08518    0.49410   1.00
H2       0.84947    1.11909    0.45251   1.00
H2       0.80823    1.10527    0.48503   1.00
H2       0.69605    0.93576    0.19317   1.00
H2       0.67051    0.98065    0.20995   1.00
H2       0.71793    0.96644    0.23228   1.00
H2       0.45887    0.85656    0.59850   1.00
H2       0.48844    0.81863    0.57327   1.00
H2       0.50923    0.84555    0.61560   1.00
H2       0.62134    0.74105    0.33907   1.00
H2       0.63384    0.70420    0.37696   1.00
H2       0.58490    0.72773    0.37707   1.00
C5       0.36652    0.53282    0.53215   1.00
H2       0.34554    0.51755    0.51276   1.00
H2       0.34897    0.55410    0.54918   1.00
C5       0.38600    0.50306    0.55959   1.00
C5       0.35936    0.49377    0.59455   1.00
H2       0.41419    0.51485    0.57059   1.00
O3       0.47485    0.68500    0.45286   1.00
C4       0.41482    0.64400    0.41462   1.00
C3c      0.39557    0.62257    0.44377   1.00
H1       0.38024    0.63775    0.46678   1.00
C3d      0.43414    0.62365    0.38459   1.00
C3       0.39621    0.58146    0.44408   1.00
O2       0.37284    0.56252    0.47068   1.00
C3       0.43547    0.58273    0.38522   1.00
H1       0.45181    0.56843    0.36235   1.00
C2       0.41652    0.56061    0.41472   1.00
C5       0.50972    0.68621    0.43094   1.00
H2       0.52032    0.71662    0.42637   1.00
H2       0.50570    0.67234    0.40175   1.00
C5       0.54068    0.66371    0.45361   1.00
H2       0.52962    0.63363    0.45913   1.00
H2       0.54471    0.67802    0.48254   1.00
C5       0.57947    0.66238    0.43100   1.00
H2       0.59055    0.69232    0.42514   1.00
H2       0.57578    0.64689    0.40270   1.00
C5       0.61053    0.64055    0.45502   1.00
C5       0.43174    0.65395    0.32537   1.00
C5       0.39437    0.55430    0.50491   1.00
H2       0.40817    0.67412    0.33492   1.00
H2       0.41813    0.62788    0.31140   1.00
H2       0.40453    0.58200    0.51868   1.00
H2       0.42079    0.53605    0.49898   1.00
H2       0.39139    0.47470    0.54438   1.00
H2       0.41739    0.72253    0.27844   1.00
H2       0.41051    0.67737    0.25147   1.00
C2       0.41764    0.76895    0.41453   1.00
C3       0.38615    0.74903    0.39696   1.00
O2       0.36153    0.76826    0.37157   1.00
C3       0.44677    0.74674    0.43358   1.00
H1       0.47072    0.76115    0.44818   1.00
C3a      0.38498    0.70787    0.39789   1.00
H1       0.36188    0.69298    0.38239   1.00
C3b      0.44618    0.70578    0.43338   1.00
C4       0.41518    0.68600    0.41538   1.00
O3       0.45599    0.64333    0.35690   1.00
C5       0.32621    0.77780    0.39046   1.00
H2       0.31101    0.75109    0.40130   1.00
C5       0.30051    0.79826    0.36046   1.00
H2       0.33147    0.79774    0.41561   1.00
H2       0.28691    0.77568    0.34146   1.00
H2       0.32000    0.81593    0.34137   1.00
C5       0.26896    0.82418    0.37920   1.00
H2       0.25176    0.80676    0.40047   1.00
C5       0.24109    0.84047    0.34796   1.00
H2       0.28214    0.84993    0.39431   1.00
C5       0.45712    0.67483    0.29539   1.00
H2       0.47625    0.65285    0.28099   1.00
H2       0.47664    0.69548    0.31119   1.00
C5       0.43254    0.69700    0.26502   1.00
C5       0.45908    0.71275    0.23238   1.00
H2       0.33590    0.47214    0.58518   1.00
H2       0.37749    0.48053    0.61909   1.00
H2       0.34497    0.52177    0.60527   1.00
H2       0.63683    0.63395    0.43576   1.00
H2       0.62005    0.65949    0.48065   1.00
H2       0.59772    0.61207    0.46644   1.00
H2       0.23150    0.87113    0.35656   1.00
H2       0.25673    0.84156    0.31863   1.00
H2       0.21440    0.82077    0.34555   1.00
H2       0.49093    0.70866    0.24105   1.00
H2       0.45304    0.69616    0.20420   1.00
H2       0.45293    0.74510    0.22773   1.00
C5       0.53215    0.86652    0.03282   1.00
H2       0.51276    0.84554    0.01755   1.00
H2       0.54918    0.84897    0.05410   1.00
C5       0.55959    0.88600    0.00306   1.00
C5       0.59455    0.85936    -0.00623   1.00
H2       0.57059    0.91419    0.01485   1.00
O3       0.45286    0.97485    0.18500   1.00
C4       0.41462    0.91482    0.14400   1.00
C3c      0.44377    0.89557    0.12257   1.00
H1       0.46678    0.88024    0.13775   1.00
C3d      0.38459    0.93414    0.12365   1.00
C3       0.44408    0.89621    0.08146   1.00
O2       0.47068    0.87284    0.06252   1.00
C3       0.38522    0.93547    0.08273   1.00
H1       0.36235    0.95181    0.06843   1.00
C2       0.41472    0.91652    0.06061   1.00
C5       0.43094    1.00972    0.18621   1.00
H2       0.42637    1.02032    0.21662   1.00
H2       0.40175    1.00570    0.17234   1.00
C5       0.45361    1.04068    0.16371   1.00
H2       0.45913    1.02962    0.13363   1.00
H2       0.48254    1.04471    0.17802   1.00
C5       0.43100    1.07947    0.16238   1.00
H2       0.42514    1.09055    0.19232   1.00
H2       0.40270    1.07578    0.14689   1.00
C5       0.45502    1.11053    0.14055   1.00
C5       0.32537    0.93174    0.15395   1.00
C5       0.50491    0.89437    0.05430   1.00
H2       0.33492    0.90817    0.17412   1.00
H2       0.31140    0.91813    0.12788   1.00
H2       0.51868    0.90453    0.08200   1.00
H2       0.49898    0.92079    0.03605   1.00
H2       0.54438    0.89139    -0.02530   1.00
H2       0.27844    0.91739    0.22253   1.00
H2       0.25147    0.91051    0.17737   1.00
C2       0.41453    0.91764    0.26895   1.00
C3       0.39696    0.88615    0.24903   1.00
O2       0.37157    0.86153    0.26826   1.00
C3       0.43358    0.94677    0.24674   1.00
H1       0.44818    0.97072    0.26115   1.00
C3a      0.39789    0.88498    0.20787   1.00
H1       0.38239    0.86188    0.19298   1.00
C3b      0.43338    0.94618    0.20578   1.00
C4       0.41538    0.91518    0.18600   1.00
O3       0.35690    0.95599    0.14333   1.00
C5       0.39046    0.82621    0.27780   1.00
H2       0.40130    0.81101    0.25109   1.00
C5       0.36046    0.80051    0.29826   1.00
H2       0.41561    0.83147    0.29774   1.00
H2       0.34146    0.78691    0.27568   1.00
H2       0.34137    0.82000    0.31593   1.00
C5       0.37920    0.76896    0.32418   1.00
H2       0.40047    0.75176    0.30676   1.00
C5       0.34796    0.74109    0.34047   1.00
H2       0.39431    0.78214    0.34993   1.00
C5       0.29539    0.95712    0.17483   1.00
H2       0.28099    0.97625    0.15285   1.00
H2       0.31119    0.97664    0.19548   1.00
C5       0.26502    0.93254    0.19700   1.00
C5       0.23238    0.95908    0.21275   1.00
H2       0.58518    0.83590    -0.02786   1.00
H2       0.61909    0.87749    -0.01947   1.00
H2       0.60527    0.84497    0.02177   1.00
H2       0.43576    1.13683    0.13395   1.00
H2       0.48065    1.12005    0.15949   1.00
H2       0.46644    1.09772    0.11207   1.00
H2       0.35656    0.73150    0.37113   1.00
H2       0.31863    0.75673    0.34156   1.00
H2       0.34555    0.71440    0.32077   1.00
H2       0.24105    0.99093    0.20866   1.00
H2       0.20420    0.95304    0.19616   1.00
H2       0.22773    0.95293    0.24510   1.00
C5       1.03215    0.46348    0.79718   1.00
H2       1.01276    0.48446    0.81245   1.00
H2       1.04918    0.48103    0.77590   1.00
C5       1.05959    0.44400    0.82694   1.00
C5       1.09455    0.47064    0.83623   1.00
H2       1.07059    0.41581    0.81515   1.00
O3       0.95286    0.35515    0.64500   1.00
C4       0.91462    0.41518    0.68600   1.00
C3c      0.94377    0.43443    0.70743   1.00
H1       0.96678    0.44976    0.69225   1.00
C3d      0.88459    0.39586    0.70635   1.00
C3       0.94408    0.43379    0.74854   1.00
O2       0.97068    0.45716    0.76748   1.00
C3       0.88522    0.39453    0.74727   1.00
H1       0.86235    0.37819    0.76157   1.00
C2       0.91472    0.41348    0.76939   1.00
C5       0.93094    0.32028    0.64379   1.00
H2       0.92637    0.30968    0.61338   1.00
H2       0.90175    0.32430    0.65766   1.00
C5       0.95361    0.28932    0.66629   1.00
H2       0.95913    0.30038    0.69637   1.00
H2       0.98254    0.28529    0.65198   1.00
C5       0.93100    0.25053    0.66762   1.00
H2       0.92514    0.23945    0.63768   1.00
H2       0.90270    0.25422    0.68311   1.00
C5       0.95502    0.21947    0.68945   1.00
C5       0.82537    0.39826    0.67605   1.00
C5       1.00491    0.43563    0.77570   1.00
H2       0.83492    0.42183    0.65588   1.00
H2       0.81140    0.41187    0.70212   1.00
H2       1.01868    0.42547    0.74800   1.00
H2       0.99898    0.40921    0.79395   1.00
H2       1.04438    0.43861    0.85530   1.00
H2       0.77844    0.41261    0.60747   1.00
H2       0.75147    0.41949    0.65263   1.00
C2       0.91453    0.41236    0.56105   1.00
C3       0.89696    0.44385    0.58097   1.00
O2       0.87157    0.46847    0.56174   1.00
C3       0.93358    0.38323    0.58326   1.00
H1       0.94818    0.35928    0.56885   1.00
C3a      0.89789    0.44502    0.62213   1.00
H1       0.88239    0.46812    0.63702   1.00
C3b      0.93338    0.38382    0.62422   1.00
C4       0.91538    0.41482    0.64400   1.00
O3       0.85690    0.37401    0.68667   1.00
C5       0.89046    0.50379    0.55220   1.00
H2       0.90130    0.51899    0.57891   1.00
C5       0.86046    0.52949    0.53174   1.00
H2       0.91561    0.49853    0.53226   1.00
H2       0.84146    0.54309    0.55432   1.00
H2       0.84137    0.51000    0.51407   1.00
C5       0.87920    0.56104    0.50582   1.00
H2       0.90047    0.57824    0.52324   1.00
C5       0.84796    0.58891    0.48953   1.00
H2       0.89431    0.54786    0.48007   1.00
C5       0.79539    0.37288    0.65517   1.00
H2       0.78099    0.35375    0.67715   1.00
H2       0.81119    0.35336    0.63452   1.00
C5       0.76502    0.39746    0.63300   1.00
C5       0.73238    0.37092    0.61725   1.00
H2       1.08518    0.49410    0.85786   1.00
H2       1.11909    0.45251    0.84947   1.00
H2       1.10527    0.48503    0.80823   1.00
H2       0.93576    0.19317    0.69605   1.00
H2       0.98065    0.20995    0.67051   1.00
H2       0.96644    0.23228    0.71793   1.00
H2       0.85656    0.59850    0.45887   1.00
H2       0.81863    0.57327    0.48844   1.00
H2       0.84555    0.61560    0.50923   1.00
H2       0.74105    0.33907    0.62134   1.00
H2       0.70420    0.37696    0.63384   1.00
H2       0.72773    0.37707    0.58490   1.00
C5       0.96348    0.79718    0.53215   1.00
H2       0.98446    0.81245    0.51276   1.00
H2       0.98103    0.77590    0.54918   1.00
C5       0.94400    0.82694    0.55959   1.00
C5       0.97064    0.83623    0.59455   1.00
H2       0.91581    0.81515    0.57059   1.00
O3       0.85515    0.64500    0.45286   1.00
C4       0.91518    0.68600    0.41462   1.00
C3c      0.93443    0.70743    0.44377   1.00
H1       0.94976    0.69225    0.46678   1.00
C3d      0.89586    0.70635    0.38459   1.00
C3       0.93379    0.74854    0.44408   1.00
O2       0.95716    0.76748    0.47068   1.00
C3       0.89453    0.74727    0.38522   1.00
H1       0.87819    0.76157    0.36235   1.00
C2       0.91348    0.76939    0.41472   1.00
C5       0.82028    0.64379    0.43094   1.00
H2       0.80968    0.61338    0.42637   1.00
H2       0.82430    0.65766    0.40175   1.00
C5       0.78932    0.66629    0.45361   1.00
H2       0.80038    0.69637    0.45913   1.00
H2       0.78529    0.65198    0.48254   1.00
C5       0.75053    0.66762    0.43100   1.00
H2       0.73945    0.63768    0.42514   1.00
H2       0.75422    0.68311    0.40270   1.00
C5       0.71947    0.68945    0.45502   1.00
C5       0.89826    0.67605    0.32537   1.00
C5       0.93563    0.77570    0.50491   1.00
H2       0.92183    0.65588    0.33492   1.00
H2       0.91187    0.70212    0.31140   1.00
H2       0.92547    0.74800    0.51868   1.00
H2       0.90921    0.79395    0.49898   1.00
H2       0.93861    0.85530    0.54438   1.00
H2       0.91261    0.60747    0.27844   1.00
H2       0.91949    0.65263    0.25147   1.00
C2       0.91236    0.56105    0.41453   1.00
C3       0.94385    0.58097    0.39696   1.00
O2       0.96847    0.56174    0.37157   1.00
C3       0.88323    0.58326    0.43358   1.00
H1       0.85928    0.56885    0.44818   1.00
C3a      0.94502    0.62213    0.39789   1.00
H1       0.96812    0.63702    0.38239   1.00
C3b      0.88382    0.62422    0.43338   1.00
C4       0.91482    0.64400    0.41538   1.00
O3       0.87401    0.68667    0.35690   1.00
C5       1.00379    0.55220    0.39046   1.00
H2       1.01899    0.57891    0.40130   1.00
C5       1.02949    0.53174    0.36046   1.00
H2       0.99853    0.53226    0.41561   1.00
H2       1.04309    0.55432    0.34146   1.00
H2       1.01000    0.51407    0.34137   1.00
C5       1.06104    0.50582    0.37920   1.00
H2       1.07824    0.52324    0.40047   1.00
C5       1.08891    0.48953    0.34796   1.00
H2       1.04786    0.48007    0.39431   1.00
C5       0.87288    0.65517    0.29539   1.00
H2       0.85375    0.67715    0.28099   1.00
H2       0.85336    0.63452    0.31119   1.00
C5       0.89746    0.63300    0.26502   1.00
C5       0.87092    0.61725    0.23238   1.00
H2       0.99410    0.85786    0.58518   1.00
H2       0.95251    0.84947    0.61909   1.00
H2       0.98503    0.80823    0.60527   1.00
H2       0.69317    0.69605    0.43576   1.00
H2       0.70995    0.67051    0.48065   1.00
H2       0.73228    0.71793    0.46644   1.00
H2       1.09850    0.45887    0.35656   1.00
H2       1.07327    0.48844    0.31863   1.00
H2       1.11560    0.50923    0.34555   1.00
H2       0.83907    0.62134    0.24105   1.00
H2       0.87696    0.63384    0.20420   1.00
H2       0.87707    0.58490    0.22773   1.00
C5       0.53282    0.53215    0.36652   1.00
H2       0.51755    0.51276    0.34554   1.00
H2       0.55410    0.54918    0.34897   1.00
C5       0.50306    0.55959    0.38600   1.00
C5       0.49377    0.59455    0.35936   1.00
H2       0.51485    0.57059    0.41419   1.00
O3       0.68500    0.45286    0.47485   1.00
C4       0.64400    0.41462    0.41482   1.00
C3c      0.62257    0.44377    0.39557   1.00
H1       0.63775    0.46678    0.38024   1.00
C3d      0.62365    0.38459    0.43414   1.00
C3       0.58146    0.44408    0.39621   1.00
O2       0.56252    0.47068    0.37284   1.00
C3       0.58273    0.38522    0.43547   1.00
H1       0.56843    0.36235    0.45181   1.00
C2       0.56061    0.41472    0.41652   1.00
C5       0.68621    0.43094    0.50972   1.00
H2       0.71662    0.42637    0.52032   1.00
H2       0.67234    0.40175    0.50570   1.00
C5       0.66371    0.45361    0.54068   1.00
H2       0.63363    0.45913    0.52962   1.00
H2       0.67802    0.48254    0.54471   1.00
C5       0.66238    0.43100    0.57947   1.00
H2       0.69232    0.42514    0.59055   1.00
H2       0.64689    0.40270    0.57578   1.00
C5       0.64055    0.45502    0.61053   1.00
C5       0.65395    0.32537    0.43174   1.00
C5       0.55430    0.50491    0.39437   1.00
H2       0.67412    0.33492    0.40817   1.00
H2       0.62788    0.31140    0.41813   1.00
H2       0.58200    0.51868    0.40453   1.00
H2       0.53605    0.49898    0.42079   1.00
H2       0.47470    0.54438    0.39139   1.00
H2       0.72253    0.27844    0.41739   1.00
H2       0.67737    0.25147    0.41051   1.00
C2       0.76895    0.41453    0.41764   1.00
C3       0.74903    0.39696    0.38615   1.00
O2       0.76826    0.37157    0.36153   1.00
C3       0.74674    0.43358    0.44677   1.00
H1       0.76115    0.44818    0.47072   1.00
C3a      0.70787    0.39789    0.38498   1.00
H1       0.69298    0.38239    0.36188   1.00
C3b      0.70578    0.43338    0.44618   1.00
C4       0.68600    0.41538    0.41518   1.00
O3       0.64333    0.35690    0.45599   1.00
C5       0.77780    0.39046    0.32621   1.00
H2       0.75109    0.40130    0.31101   1.00
C5       0.79826    0.36046    0.30051   1.00
H2       0.79774    0.41561    0.33147   1.00
H2       0.77568    0.34146    0.28691   1.00
H2       0.81593    0.34137    0.32000   1.00
C5       0.82418    0.37920    0.26896   1.00
H2       0.80676    0.40047    0.25176   1.00
C5       0.84047    0.34796    0.24109   1.00
H2       0.84993    0.39431    0.28214   1.00
C5       0.67483    0.29539    0.45712   1.00
H2       0.65285    0.28099    0.47625   1.00
H2       0.69548    0.31119    0.47664   1.00
C5       0.69700    0.26502    0.43254   1.00
C5       0.71275    0.23238    0.45908   1.00
H2       0.47214    0.58518    0.33590   1.00
H2       0.48053    0.61909    0.37749   1.00
H2       0.52177    0.60527    0.34497   1.00
H2       0.63395    0.43576    0.63683   1.00
H2       0.65949    0.48065    0.62005   1.00
H2       0.61207    0.46644    0.59772   1.00
H2       0.87113    0.35656    0.23150   1.00
H2       0.84156    0.31863    0.25673   1.00
H2       0.82077    0.34555    0.21440   1.00
H2       0.70866    0.24105    0.49093   1.00
H2       0.69616    0.20420    0.45304   1.00
H2       0.74510    0.22773    0.45293   1.00
C5       1.29718    0.53215    0.46348   1.00
H2       1.31245    0.51276    0.48446   1.00
H2       1.27590    0.54918    0.48103   1.00
C5       1.32694    0.55959    0.44400   1.00
C5       1.33623    0.59455    0.47064   1.00
H2       1.31515    0.57059    0.41581   1.00
O3       1.14500    0.45286    0.35515   1.00
C4       1.18600    0.41462    0.41518   1.00
C3c      1.20743    0.44377    0.43443   1.00
H1       1.19225    0.46678    0.44976   1.00
C3d      1.20635    0.38459    0.39586   1.00
C3       1.24854    0.44408    0.43379   1.00
O2       1.26748    0.47068    0.45716   1.00
C3       1.24727    0.38522    0.39453   1.00
H1       1.26157    0.36235    0.37819   1.00
C2       1.26939    0.41472    0.41348   1.00
C5       1.14379    0.43094    0.32028   1.00
H2       1.11338    0.42637    0.30968   1.00
H2       1.15766    0.40175    0.32430   1.00
C5       1.16629    0.45361    0.28932   1.00
H2       1.19637    0.45913    0.30038   1.00
H2       1.15198    0.48254    0.28529   1.00
C5       1.16762    0.43100    0.25053   1.00
H2       1.13768    0.42514    0.23945   1.00
H2       1.18311    0.40270    0.25422   1.00
C5       1.18945    0.45502    0.21947   1.00
C5       1.17605    0.32537    0.39826   1.00
C5       1.27570    0.50491    0.43563   1.00
H2       1.15588    0.33492    0.42183   1.00
H2       1.20212    0.31140    0.41187   1.00
H2       1.24800    0.51868    0.42547   1.00
H2       1.29395    0.49898    0.40921   1.00
H2       1.35530    0.54438    0.43861   1.00
H2       1.10747    0.27844    0.41261   1.00
H2       1.15263    0.25147    0.41949   1.00
C2       1.06105    0.41453    0.41236   1.00
C3       1.08097    0.39696    0.44385   1.00
O2       1.06174    0.37157    0.46847   1.00
C3       1.08326    0.43358    0.38323   1.00
H1       1.06885    0.44818    0.35928   1.00
C3a      1.12213    0.39789    0.44502   1.00
H1       1.13702    0.38239    0.46812   1.00
C3b      1.12422    0.43338    0.38382   1.00
C4       1.14400    0.41538    0.41482   1.00
O3       1.18667    0.35690    0.37401   1.00
C5       1.05220    0.39046    0.50379   1.00
H2       1.07891    0.40130    0.51899   1.00
C5       1.03174    0.36046    0.52949   1.00
H2       1.03226    0.41561    0.49853   1.00
H2       1.05432    0.34146    0.54309   1.00
H2       1.01407    0.34137    0.51000   1.00
C5       1.00582    0.37920    0.56104   1.00
H2       1.02324    0.40047    0.57824   1.00
C5       0.98953    0.34796    0.58891   1.00
H2       0.98007    0.39431    0.54786   1.00
C5       1.15517    0.29539    0.37288   1.00
H2       1.17715    0.28099    0.35375   1.00
H2       1.13452    0.31119    0.35336   1.00
C5       1.13300    0.26502    0.39746   1.00
C5       1.11725    0.23238    0.37092   1.00
H2       1.35786    0.58518    0.49410   1.00
H2       1.34947    0.61909    0.45251   1.00
H2       1.30823    0.60527    0.48503   1.00
H2       1.19605    0.43576    0.19317   1.00
H2       1.17051    0.48065    0.20995   1.00
H2       1.21793    0.46644    0.23228   1.00
H2       0.95887    0.35656    0.59850   1.00
H2       0.98844    0.31863    0.57327   1.00
H2       1.00923    0.34555    0.61560   1.00
H2       1.12134    0.24105    0.33907   1.00
H2       1.13384    0.20420    0.37696   1.00
H2       1.08490    0.22773    0.37707   1.00
C5       0.86652    0.03282    0.53215   1.00
H2       0.84554    0.01755    0.51276   1.00
H2       0.84897    0.05410    0.54918   1.00
C5       0.88600    0.00306    0.55959   1.00
C5       0.85936    -0.00623   0.59455   1.00
H2       0.91419    0.01485    0.57059   1.00
O3       0.97485    0.18500    0.45286   1.00
C4       0.91482    0.14400    0.41462   1.00
C3c      0.89557    0.12257    0.44377   1.00
H1       0.88024    0.13775    0.46678   1.00
C3d      0.93414    0.12365    0.38459   1.00
C3       0.89621    0.08146    0.44408   1.00
O2       0.87284    0.06252    0.47068   1.00
C3       0.93547    0.08273    0.38522   1.00
H1       0.95181    0.06843    0.36235   1.00
C2       0.91652    0.06061    0.41472   1.00
C5       1.00972    0.18621    0.43094   1.00
H2       1.02032    0.21662    0.42637   1.00
H2       1.00570    0.17234    0.40175   1.00
C5       1.04068    0.16371    0.45361   1.00
H2       1.02962    0.13363    0.45913   1.00
H2       1.04471    0.17802    0.48254   1.00
C5       1.07947    0.16238    0.43100   1.00
H2       1.09055    0.19232    0.42514   1.00
H2       1.07578    0.14689    0.40270   1.00
C5       1.11053    0.14055    0.45502   1.00
C5       0.93174    0.15395    0.32537   1.00
C5       0.89437    0.05430    0.50491   1.00
H2       0.90817    0.17412    0.33492   1.00
H2       0.91813    0.12788    0.31140   1.00
H2       0.90453    0.08200    0.51868   1.00
H2       0.92079    0.03605    0.49898   1.00
H2       0.89139    -0.02530   0.54438   1.00
H2       0.91739    0.22253    0.27844   1.00
H2       0.91051    0.17737    0.25147   1.00
C2       0.91764    0.26895    0.41453   1.00
C3       0.88615    0.24903    0.39696   1.00
O2       0.86153    0.26826    0.37157   1.00
C3       0.94677    0.24674    0.43358   1.00
H1       0.97072    0.26115    0.44818   1.00
C3a      0.88498    0.20787    0.39789   1.00
H1       0.86188    0.19298    0.38239   1.00
C3b      0.94618    0.20578    0.43338   1.00
C4       0.91518    0.18600    0.41538   1.00
O3       0.95599    0.14333    0.35690   1.00
C5       0.82621    0.27780    0.39046   1.00
H2       0.81101    0.25109    0.40130   1.00
C5       0.80051    0.29826    0.36046   1.00
H2       0.83147    0.29774    0.41561   1.00
H2       0.78691    0.27568    0.34146   1.00
H2       0.82000    0.31593    0.34137   1.00
C5       0.76896    0.32418    0.37920   1.00
H2       0.75176    0.30676    0.40047   1.00
C5       0.74109    0.34047    0.34796   1.00
H2       0.78214    0.34993    0.39431   1.00
C5       0.95712    0.17483    0.29539   1.00
H2       0.97625    0.15285    0.28099   1.00
H2       0.97664    0.19548    0.31119   1.00
C5       0.93254    0.19700    0.26502   1.00
C5       0.95908    0.21275    0.23238   1.00
H2       0.83590    -0.02786   0.58518   1.00
H2       0.87749    -0.01947   0.61909   1.00
H2       0.84497    0.02177    0.60527   1.00
H2       1.13683    0.13395    0.43576   1.00
H2       1.12005    0.15949    0.48065   1.00
H2       1.09772    0.11207    0.46644   1.00
H2       0.73150    0.37113    0.35656   1.00
H2       0.75673    0.34156    0.31863   1.00
H2       0.71440    0.32077    0.34555   1.00
H2       0.99093    0.20866    0.24105   1.00
H2       0.95304    0.19616    0.20420   1.00
H2       0.95293    0.24510    0.22773   1.00
C5       1.03215    0.36652    0.03282   1.00
H2       1.01276    0.34554    0.01755   1.00
H2       1.04918    0.34897    0.05410   1.00
C5       1.05959    0.38600    0.00306   1.00
C5       1.09455    0.35936    -0.00623   1.00
H2       1.07059    0.41419    0.01485   1.00
O3       0.95286    0.47485    0.18500   1.00
C4       0.91462    0.41482    0.14400   1.00
C3c      0.94377    0.39557    0.12257   1.00
H1       0.96678    0.38024    0.13775   1.00
C3d      0.88459    0.43414    0.12365   1.00
C3       0.94408    0.39621    0.08146   1.00
O2       0.97068    0.37284    0.06252   1.00
C3       0.88522    0.43547    0.08273   1.00
H1       0.86235    0.45181    0.06843   1.00
C2       0.91472    0.41652    0.06061   1.00
C5       0.93094    0.50972    0.18621   1.00
H2       0.92637    0.52032    0.21662   1.00
H2       0.90175    0.50570    0.17234   1.00
C5       0.95361    0.54068    0.16371   1.00
H2       0.95913    0.52962    0.13363   1.00
H2       0.98254    0.54471    0.17802   1.00
C5       0.93100    0.57947    0.16238   1.00
H2       0.92514    0.59055    0.19232   1.00
H2       0.90270    0.57578    0.14689   1.00
C5       0.95502    0.61053    0.14055   1.00
C5       0.82537    0.43174    0.15395   1.00
C5       1.00491    0.39437    0.05430   1.00
H2       0.83492    0.40817    0.17412   1.00
H2       0.81140    0.41813    0.12788   1.00
H2       1.01868    0.40453    0.08200   1.00
H2       0.99898    0.42079    0.03605   1.00
H2       1.04438    0.39139    -0.02530   1.00
H2       0.77844    0.41739    0.22253   1.00
H2       0.75147    0.41051    0.17737   1.00
C2       0.91453    0.41764    0.26895   1.00
C3       0.89696    0.38615    0.24903   1.00
O2       0.87157    0.36153    0.26826   1.00
C3       0.93358    0.44677    0.24674   1.00
H1       0.94818    0.47072    0.26115   1.00
C3a      0.89789    0.38498    0.20787   1.00
H1       0.88239    0.36188    0.19298   1.00
C3b      0.93338    0.44618    0.20578   1.00
C4       0.91538    0.41518    0.18600   1.00
O3       0.85690    0.45599    0.14333   1.00
C5       0.89046    0.32621    0.27780   1.00
H2       0.90130    0.31101    0.25109   1.00
C5       0.86046    0.30051    0.29826   1.00
H2       0.91561    0.33147    0.29774   1.00
H2       0.84146    0.28691    0.27568   1.00
H2       0.84137    0.32000    0.31593   1.00
C5       0.87920    0.26896    0.32418   1.00
H2       0.90047    0.25176    0.30676   1.00
C5       0.84796    0.24109    0.34047   1.00
H2       0.89431    0.28214    0.34993   1.00
C5       0.79539    0.45712    0.17483   1.00
H2       0.78099    0.47625    0.15285   1.00
H2       0.81119    0.47664    0.19548   1.00
C5       0.76502    0.43254    0.19700   1.00
C5       0.73238    0.45908    0.21275   1.00
H2       1.08518    0.33590    -0.02786   1.00
H2       1.11909    0.37749    -0.01947   1.00
H2       1.10527    0.34497    0.02177   1.00
H2       0.93576    0.63683    0.13395   1.00
H2       0.98065    0.62005    0.15949   1.00
H2       0.96644    0.59772    0.11207   1.00
H2       0.85656    0.23150    0.37113   1.00
H2       0.81863    0.25673    0.34156   1.00
H2       0.84555    0.21440    0.32077   1.00
H2       0.74105    0.49093    0.20866   1.00
H2       0.70420    0.45304    0.19616   1.00
H2       0.72773    0.45293    0.24510   1.00
