data_IRMOF10_SG202_interpen_Ligand4cp_label_b.

_audit_creation_method             'generated by an auxiliary program of Tobunporous'

_symmetry_space_group_name_H-M     'P 1'
_symmetry_Int_Tables_number        1
_symmetry_cell_setting             triclinic

_cell_length_a                    34.2800
_cell_length_b                    34.2800
_cell_length_c                    34.2800
_cell_angle_alpha                 90.0000
_cell_angle_beta                  90.0000
_cell_angle_gamma                 90.0000

loop_
_atom_site_label
_atom_site_fract_x
_atom_site_fract_y
_atom_site_fract_z
_atom_site_occupancy
O1       0.75000    0.75000    0.75000   1.00
Zn1      0.71720    0.78280    0.78280   1.00
Zn1      0.78280    0.71720    0.78280   1.00
Zn1      0.78280    0.78280    0.71720   1.00
Zn1      0.71720    0.71720    0.71720   1.00
O2       0.72650    0.77350    0.83820   1.00
O2       0.72650    0.83820    0.77350   1.00
O2       0.66180    0.77350    0.77350   1.00
O2       0.77350    0.72650    0.83820   1.00
O2       0.83820    0.72650    0.77350   1.00
O2       0.77350    0.66180    0.77350   1.00
O2       0.77350    0.83820    0.72650   1.00
O2       0.83820    0.77350    0.72650   1.00
O2       0.77350    0.77350    0.66180   1.00
O2       0.66180    0.72650    0.72650   1.00
O2       0.72650    0.66180    0.72650   1.00
O2       0.72650    0.72650    0.66180   1.00
C1       0.75000    0.75000    0.85520   1.00
C1       0.75000    0.85520    0.75000   1.00
C1       0.64480    0.75000    0.75000   1.00
C1       0.85520    0.75000    0.75000   1.00
C1       0.75000    0.64480    0.75000   1.00
C1       0.75000    0.75000    0.64480   1.00
O1       0.25000    0.25000    0.75000   1.00
Zn1      0.21720    0.28280    0.78280   1.00
Zn1      0.28280    0.21720    0.78280   1.00
Zn1      0.28280    0.28280    0.71720   1.00
Zn1      0.21720    0.21720    0.71720   1.00
O2       0.22650    0.27350    0.83820   1.00
O2       0.22650    0.33820    0.77350   1.00
O2       0.16180    0.27350    0.77350   1.00
O2       0.27350    0.22650    0.83820   1.00
O2       0.33820    0.22650    0.77350   1.00
O2       0.27350    0.16180    0.77350   1.00
O2       0.27350    0.33820    0.72650   1.00
O2       0.33820    0.27350    0.72650   1.00
O2       0.27350    0.27350    0.66180   1.00
O2       0.16180    0.22650    0.72650   1.00
O2       0.22650    0.16180    0.72650   1.00
O2       0.22650    0.22650    0.66180   1.00
C1       0.25000    0.25000    0.85520   1.00
C1       0.25000    0.35520    0.75000   1.00
C1       0.14480    0.25000    0.75000   1.00
C1       0.35520    0.25000    0.75000   1.00
C1       0.25000    0.14480    0.75000   1.00
C1       0.25000    0.25000    0.64480   1.00
O1       0.25000    0.75000    0.25000   1.00
Zn1      0.21720    0.78280    0.28280   1.00
Zn1      0.28280    0.71720    0.28280   1.00
Zn1      0.28280    0.78280    0.21720   1.00
Zn1      0.21720    0.71720    0.21720   1.00
O2       0.22650    0.77350    0.33820   1.00
O2       0.22650    0.83820    0.27350   1.00
O2       0.16180    0.77350    0.27350   1.00
O2       0.27350    0.72650    0.33820   1.00
O2       0.33820    0.72650    0.27350   1.00
O2       0.27350    0.66180    0.27350   1.00
O2       0.27350    0.83820    0.22650   1.00
O2       0.33820    0.77350    0.22650   1.00
O2       0.27350    0.77350    0.16180   1.00
O2       0.16180    0.72650    0.22650   1.00
O2       0.22650    0.66180    0.22650   1.00
O2       0.22650    0.72650    0.16180   1.00
C1       0.25000    0.75000    0.35520   1.00
C1       0.25000    0.85520    0.25000   1.00
C1       0.14480    0.75000    0.25000   1.00
C1       0.35520    0.75000    0.25000   1.00
C1       0.25000    0.64480    0.25000   1.00
C1       0.25000    0.75000    0.14480   1.00
O1       0.75000    0.25000    0.25000   1.00
Zn1      0.71720    0.28280    0.28280   1.00
Zn1      0.78280    0.21720    0.28280   1.00
Zn1      0.78280    0.28280    0.21720   1.00
Zn1      0.71720    0.21720    0.21720   1.00
O2       0.72650    0.27350    0.33820   1.00
O2       0.72650    0.33820    0.27350   1.00
O2       0.66180    0.27350    0.27350   1.00
O2       0.77350    0.22650    0.33820   1.00
O2       0.83820    0.22650    0.27350   1.00
O2       0.77350    0.16180    0.27350   1.00
O2       0.77350    0.33820    0.22650   1.00
O2       0.83820    0.27350    0.22650   1.00
O2       0.77350    0.27350    0.16180   1.00
O2       0.66180    0.22650    0.22650   1.00
O2       0.72650    0.16180    0.22650   1.00
O2       0.72650    0.22650    0.16180   1.00
C1       0.75000    0.25000    0.35520   1.00
C1       0.75000    0.35520    0.25000   1.00
C1       0.64480    0.25000    0.25000   1.00
C1       0.85520    0.25000    0.25000   1.00
C1       0.75000    0.14480    0.25000   1.00
C1       0.75000    0.25000    0.14480   1.00
O1       0.25000    0.25000    0.25000   1.00
Zn1      0.28280    0.21720    0.21720   1.00
Zn1      0.21720    0.28280    0.21720   1.00
Zn1      0.21720    0.21720    0.28280   1.00
Zn1      0.28280    0.28280    0.28280   1.00
O2       0.27350    0.22650    0.16180   1.00
O2       0.27350    0.16180    0.22650   1.00
O2       0.33820    0.22650    0.22650   1.00
O2       0.22650    0.27350    0.16180   1.00
O2       0.16180    0.27350    0.22650   1.00
O2       0.22650    0.33820    0.22650   1.00
O2       0.22650    0.16180    0.27350   1.00
O2       0.16180    0.22650    0.27350   1.00
O2       0.22650    0.22650    0.33820   1.00
O2       0.33820    0.27350    0.27350   1.00
O2       0.27350    0.33820    0.27350   1.00
O2       0.27350    0.27350    0.33820   1.00
C1       0.25000    0.25000    0.14480   1.00
C1       0.25000    0.14480    0.25000   1.00
C1       0.35520    0.25000    0.25000   1.00
C1       0.14480    0.25000    0.25000   1.00
C1       0.25000    0.35520    0.25000   1.00
C1       0.25000    0.25000    0.35520   1.00
O1       0.75000    0.75000    0.25000   1.00
Zn1      0.78280    0.71720    0.21720   1.00
Zn1      0.71720    0.78280    0.21720   1.00
Zn1      0.71720    0.71720    0.28280   1.00
Zn1      0.78280    0.78280    0.28280   1.00
O2       0.77350    0.72650    0.16180   1.00
O2       0.77350    0.66180    0.22650   1.00
O2       0.83820    0.72650    0.22650   1.00
O2       0.72650    0.77350    0.16180   1.00
O2       0.66180    0.77350    0.22650   1.00
O2       0.72650    0.83820    0.22650   1.00
O2       0.72650    0.66180    0.27350   1.00
O2       0.66180    0.72650    0.27350   1.00
O2       0.72650    0.72650    0.33820   1.00
O2       0.83820    0.77350    0.27350   1.00
O2       0.77350    0.83820    0.27350   1.00
O2       0.77350    0.77350    0.33820   1.00
C1       0.75000    0.75000    0.14480   1.00
C1       0.75000    0.64480    0.25000   1.00
C1       0.85520    0.75000    0.25000   1.00
C1       0.64480    0.75000    0.25000   1.00
C1       0.75000    0.85520    0.25000   1.00
C1       0.75000    0.75000    0.35520   1.00
O1       0.75000    0.25000    0.75000   1.00
Zn1      0.78280    0.21720    0.71720   1.00
Zn1      0.71720    0.28280    0.71720   1.00
Zn1      0.71720    0.21720    0.78280   1.00
Zn1      0.78280    0.28280    0.78280   1.00
O2       0.77350    0.22650    0.66180   1.00
O2       0.77350    0.16180    0.72650   1.00
O2       0.83820    0.22650    0.72650   1.00
O2       0.72650    0.27350    0.66180   1.00
O2       0.66180    0.27350    0.72650   1.00
O2       0.72650    0.33820    0.72650   1.00
O2       0.72650    0.16180    0.77350   1.00
O2       0.66180    0.22650    0.77350   1.00
O2       0.72650    0.22650    0.83820   1.00
O2       0.83820    0.27350    0.77350   1.00
O2       0.77350    0.33820    0.77350   1.00
O2       0.77350    0.27350    0.83820   1.00
C1       0.75000    0.25000    0.64480   1.00
C1       0.75000    0.14480    0.75000   1.00
C1       0.85520    0.25000    0.75000   1.00
C1       0.64480    0.25000    0.75000   1.00
C1       0.75000    0.35520    0.75000   1.00
C1       0.75000    0.25000    0.85520   1.00
O1       0.25000    0.75000    0.75000   1.00
Zn1      0.28280    0.71720    0.71720   1.00
Zn1      0.21720    0.78280    0.71720   1.00
Zn1      0.21720    0.71720    0.78280   1.00
Zn1      0.28280    0.78280    0.78280   1.00
O2       0.27350    0.72650    0.66180   1.00
O2       0.27350    0.66180    0.72650   1.00
O2       0.33820    0.72650    0.72650   1.00
O2       0.22650    0.77350    0.66180   1.00
O2       0.16180    0.77350    0.72650   1.00
O2       0.22650    0.83820    0.72650   1.00
O2       0.22650    0.66180    0.77350   1.00
O2       0.16180    0.72650    0.77350   1.00
O2       0.22650    0.72650    0.83820   1.00
O2       0.33820    0.77350    0.77350   1.00
O2       0.27350    0.83820    0.77350   1.00
O2       0.27350    0.77350    0.83820   1.00
C1       0.25000    0.75000    0.64480   1.00
C1       0.25000    0.64480    0.75000   1.00
C1       0.35520    0.75000    0.75000   1.00
C1       0.14480    0.75000    0.75000   1.00
C1       0.25000    0.85520    0.75000   1.00
C1       0.25000    0.75000    0.85520   1.00
O1       0.91500    0.91500    0.91500   1.00
Zn1      0.88220    0.94780    0.94780   1.00
Zn1      0.94780    0.88220    0.94780   1.00
Zn1      0.94780    0.94780    0.88220   1.00
Zn1      0.88220    0.88220    0.88220   1.00
O2       0.89150    0.93850    1.00320   1.00
O2       0.89150    1.00320    0.93850   1.00
O2       0.82680    0.93850    0.93850   1.00
O2       0.93850    0.89150    1.00320   1.00
O2       1.00320    0.89150    0.93850   1.00
O2       0.93850    0.82680    0.93850   1.00
O2       0.93850    1.00320    0.89150   1.00
O2       1.00320    0.93850    0.89150   1.00
O2       0.93850    0.93850    0.82680   1.00
O2       0.82680    0.89150    0.89150   1.00
O2       0.89150    0.82680    0.89150   1.00
O2       0.89150    0.89150    0.82680   1.00
C1       0.91500    0.91500    1.02020   1.00
C1       0.91500    1.02020    0.91500   1.00
C1       0.80980    0.91500    0.91500   1.00
C1       1.02020    0.91500    0.91500   1.00
C1       0.91500    0.80980    0.91500   1.00
C1       0.91500    0.91500    0.80980   1.00
O1       0.41500    0.41500    0.91500   1.00
Zn1      0.38220    0.44780    0.94780   1.00
Zn1      0.44780    0.38220    0.94780   1.00
Zn1      0.44780    0.44780    0.88220   1.00
Zn1      0.38220    0.38220    0.88220   1.00
O2       0.39150    0.43850    1.00320   1.00
O2       0.39150    0.50320    0.93850   1.00
O2       0.32680    0.43850    0.93850   1.00
O2       0.43850    0.39150    1.00320   1.00
O2       0.50320    0.39150    0.93850   1.00
O2       0.43850    0.32680    0.93850   1.00
O2       0.43850    0.50320    0.89150   1.00
O2       0.50320    0.43850    0.89150   1.00
O2       0.43850    0.43850    0.82680   1.00
O2       0.32680    0.39150    0.89150   1.00
O2       0.39150    0.32680    0.89150   1.00
O2       0.39150    0.39150    0.82680   1.00
C1       0.41500    0.41500    1.02020   1.00
C1       0.41500    0.52020    0.91500   1.00
C1       0.30980    0.41500    0.91500   1.00
C1       0.52020    0.41500    0.91500   1.00
C1       0.41500    0.30980    0.91500   1.00
C1       0.41500    0.41500    0.80980   1.00
O1       0.41500    0.91500    0.41500   1.00
Zn1      0.38220    0.94780    0.44780   1.00
Zn1      0.44780    0.88220    0.44780   1.00
Zn1      0.44780    0.94780    0.38220   1.00
Zn1      0.38220    0.88220    0.38220   1.00
O2       0.39150    0.93850    0.50320   1.00
O2       0.39150    1.00320    0.43850   1.00
O2       0.32680    0.93850    0.43850   1.00
O2       0.43850    0.89150    0.50320   1.00
O2       0.50320    0.89150    0.43850   1.00
O2       0.43850    0.82680    0.43850   1.00
O2       0.43850    1.00320    0.39150   1.00
O2       0.50320    0.93850    0.39150   1.00
O2       0.43850    0.93850    0.32680   1.00
O2       0.32680    0.89150    0.39150   1.00
O2       0.39150    0.82680    0.39150   1.00
O2       0.39150    0.89150    0.32680   1.00
C1       0.41500    0.91500    0.52020   1.00
C1       0.41500    1.02020    0.41500   1.00
C1       0.30980    0.91500    0.41500   1.00
C1       0.52020    0.91500    0.41500   1.00
C1       0.41500    0.80980    0.41500   1.00
C1       0.41500    0.91500    0.30980   1.00
O1       0.91500    0.41500    0.41500   1.00
Zn1      0.88220    0.44780    0.44780   1.00
Zn1      0.94780    0.38220    0.44780   1.00
Zn1      0.94780    0.44780    0.38220   1.00
Zn1      0.88220    0.38220    0.38220   1.00
O2       0.89150    0.43850    0.50320   1.00
O2       0.89150    0.50320    0.43850   1.00
O2       0.82680    0.43850    0.43850   1.00
O2       0.93850    0.39150    0.50320   1.00
O2       1.00320    0.39150    0.43850   1.00
O2       0.93850    0.32680    0.43850   1.00
O2       0.93850    0.50320    0.39150   1.00
O2       1.00320    0.43850    0.39150   1.00
O2       0.93850    0.43850    0.32680   1.00
O2       0.82680    0.39150    0.39150   1.00
O2       0.89150    0.32680    0.39150   1.00
O2       0.89150    0.39150    0.32680   1.00
C1       0.91500    0.41500    0.52020   1.00
C1       0.91500    0.52020    0.41500   1.00
C1       0.80980    0.41500    0.41500   1.00
C1       1.02020    0.41500    0.41500   1.00
C1       0.91500    0.30980    0.41500   1.00
C1       0.91500    0.41500    0.30980   1.00
O1       0.41500    0.41500    0.41500   1.00
Zn1      0.44780    0.38220    0.38220   1.00
Zn1      0.38220    0.44780    0.38220   1.00
Zn1      0.38220    0.38220    0.44780   1.00
Zn1      0.44780    0.44780    0.44780   1.00
O2       0.43850    0.39150    0.32680   1.00
O2       0.43850    0.32680    0.39150   1.00
O2       0.50320    0.39150    0.39150   1.00
O2       0.39150    0.43850    0.32680   1.00
O2       0.32680    0.43850    0.39150   1.00
O2       0.39150    0.50320    0.39150   1.00
O2       0.39150    0.32680    0.43850   1.00
O2       0.32680    0.39150    0.43850   1.00
O2       0.39150    0.39150    0.50320   1.00
O2       0.50320    0.43850    0.43850   1.00
O2       0.43850    0.50320    0.43850   1.00
O2       0.43850    0.43850    0.50320   1.00
C1       0.41500    0.41500    0.30980   1.00
C1       0.41500    0.30980    0.41500   1.00
C1       0.52020    0.41500    0.41500   1.00
C1       0.30980    0.41500    0.41500   1.00
C1       0.41500    0.52020    0.41500   1.00
C1       0.41500    0.41500    0.52020   1.00
O1       0.91500    0.91500    0.41500   1.00
Zn1      0.94780    0.88220    0.38220   1.00
Zn1      0.88220    0.94780    0.38220   1.00
Zn1      0.88220    0.88220    0.44780   1.00
Zn1      0.94780    0.94780    0.44780   1.00
O2       0.93850    0.89150    0.32680   1.00
O2       0.93850    0.82680    0.39150   1.00
O2       1.00320    0.89150    0.39150   1.00
O2       0.89150    0.93850    0.32680   1.00
O2       0.82680    0.93850    0.39150   1.00
O2       0.89150    1.00320    0.39150   1.00
O2       0.89150    0.82680    0.43850   1.00
O2       0.82680    0.89150    0.43850   1.00
O2       0.89150    0.89150    0.50320   1.00
O2       1.00320    0.93850    0.43850   1.00
O2       0.93850    1.00320    0.43850   1.00
O2       0.93850    0.93850    0.50320   1.00
C1       0.91500    0.91500    0.30980   1.00
C1       0.91500    0.80980    0.41500   1.00
C1       1.02020    0.91500    0.41500   1.00
C1       0.80980    0.91500    0.41500   1.00
C1       0.91500    1.02020    0.41500   1.00
C1       0.91500    0.91500    0.52020   1.00
O1       0.91500    0.41500    0.91500   1.00
Zn1      0.94780    0.38220    0.88220   1.00
Zn1      0.88220    0.44780    0.88220   1.00
Zn1      0.88220    0.38220    0.94780   1.00
Zn1      0.94780    0.44780    0.94780   1.00
O2       0.93850    0.39150    0.82680   1.00
O2       0.93850    0.32680    0.89150   1.00
O2       1.00320    0.39150    0.89150   1.00
O2       0.89150    0.43850    0.82680   1.00
O2       0.82680    0.43850    0.89150   1.00
O2       0.89150    0.50320    0.89150   1.00
O2       0.89150    0.32680    0.93850   1.00
O2       0.82680    0.39150    0.93850   1.00
O2       0.89150    0.39150    1.00320   1.00
O2       1.00320    0.43850    0.93850   1.00
O2       0.93850    0.50320    0.93850   1.00
O2       0.93850    0.43850    1.00320   1.00
C1       0.91500    0.41500    0.80980   1.00
C1       0.91500    0.30980    0.91500   1.00
C1       1.02020    0.41500    0.91500   1.00
C1       0.80980    0.41500    0.91500   1.00
C1       0.91500    0.52020    0.91500   1.00
C1       0.91500    0.41500    1.02020   1.00
O1       0.41500    0.91500    0.91500   1.00
Zn1      0.44780    0.88220    0.88220   1.00
Zn1      0.38220    0.94780    0.88220   1.00
Zn1      0.38220    0.88220    0.94780   1.00
Zn1      0.44780    0.94780    0.94780   1.00
O2       0.43850    0.89150    0.82680   1.00
O2       0.43850    0.82680    0.89150   1.00
O2       0.50320    0.89150    0.89150   1.00
O2       0.39150    0.93850    0.82680   1.00
O2       0.32680    0.93850    0.89150   1.00
O2       0.39150    1.00320    0.89150   1.00
O2       0.39150    0.82680    0.93850   1.00
O2       0.32680    0.89150    0.93850   1.00
O2       0.39150    0.89150    1.00320   1.00
O2       0.50320    0.93850    0.93850   1.00
O2       0.43850    1.00320    0.93850   1.00
O2       0.43850    0.93850    1.00320   1.00
C1       0.41500    0.91500    0.80980   1.00
C1       0.41500    0.80980    0.91500   1.00
C1       0.52020    0.91500    0.91500   1.00
C1       0.30980    0.91500    0.91500   1.00
C1       0.41500    1.02020    0.91500   1.00
C1       0.41500    0.91500    1.02020   1.00
C4       0.75230    0.74580    0.98025   1.00
C4       0.75166    0.74439    1.02191   1.00
C3       0.78473    0.76080    0.95897   1.00
C3       0.78484    0.75401    1.04504   1.00
C3       0.71950    0.73185    0.95854   1.00
C3       0.71675    0.73293    1.04170   1.00
C2       0.75445    0.74690    0.89595   1.00
C2       0.74981    0.74341    1.10622   1.00
C3       0.78592    0.76118    0.91811   1.00
C3       0.78397    0.75375    1.08591   1.00
C3       0.72197    0.73255    0.91696   1.00
C3       0.71700    0.73325    1.08336   1.00
H1       0.80854    0.77237    0.97237   1.00
H1       0.81102    0.76120    1.03306   1.00
C5       0.68536    0.71793    0.97835   1.00
C5       0.68291    0.72135    1.01998   1.00
H1       0.81022    0.77224    0.90451   1.00
H1       0.80884    0.76114    1.10091   1.00
H1       0.69934    0.72264    0.90052   1.00
H1       0.69266    0.72554    1.09848   1.00
C6       0.65262    0.69944    0.95515   1.00
C6       0.64498    0.71332    1.04119   1.00
H2       0.66507    0.67981    0.93345   1.00
H2       0.64037    0.73589    1.06310   1.00
H2       0.63556    0.67941    0.97286   1.00
H2       0.61986    0.71752    1.02228   1.00
C6       0.62451    0.73007    0.93606   1.00
C6       0.64304    0.67141    1.05942   1.00
H2       0.64165    0.75355    0.92292   1.00
H2       0.67071    0.66475    1.07383   1.00
C6       0.59505    0.71496    0.90459   1.00
C6       0.60939    0.66285    1.08911   1.00
H2       0.60790    0.74391    0.95949   1.00
H2       0.64080    0.65050    1.03546   1.00
C6       0.61632    0.70046    0.86735   1.00
C6       0.61401    0.68706    1.12708   1.00
C6       0.56896    0.68176    0.92074   1.00
C6       0.56875    0.67101    1.07107   1.00
C6       0.56807    0.74928    0.89245   1.00
C6       0.61106    0.61903    1.10054   1.00
H2       0.63549    0.72304    0.85558   1.00
H2       0.64269    0.68243    1.14020   1.00
H2       0.63402    0.67475    0.87330   1.00
H2       0.61072    0.71817    1.12154   1.00
H2       0.59551    0.69254    0.84459   1.00
H2       0.59203    0.67892    1.14863   1.00
H2       0.54671    0.67336    0.89955   1.00
H2       0.54545    0.66232    1.09098   1.00
H2       0.58622    0.65585    0.92725   1.00
H2       0.56502    0.70200    1.06494   1.00
H2       0.55427    0.69094    0.94745   1.00
H2       0.56506    0.65493    1.04385   1.00
H2       0.58505    0.77341    0.88042   1.00
H2       0.63910    0.61179    1.11383   1.00
H2       0.54708    0.74021    0.87025   1.00
H2       0.58822    0.61165    1.12149   1.00
H2       0.55162    0.76030    0.91739   1.00
H2       0.60717    0.60037    1.07502   1.00
C4       0.74580    0.98025    0.75230   1.00
C4       0.74439    1.02191    0.75166   1.00
C3       0.76080    0.95897    0.78473   1.00
C3       0.75401    1.04504    0.78484   1.00
C3       0.73185    0.95854    0.71950   1.00
C3       0.73293    1.04170    0.71675   1.00
C2       0.74690    0.89595    0.75445   1.00
C2       0.74341    1.10622    0.74981   1.00
C3       0.76118    0.91811    0.78592   1.00
C3       0.75375    1.08591    0.78397   1.00
C3       0.73255    0.91696    0.72197   1.00
C3       0.73325    1.08336    0.71700   1.00
H1       0.77237    0.97237    0.80854   1.00
H1       0.76120    1.03306    0.81102   1.00
C5       0.71793    0.97835    0.68536   1.00
C5       0.72135    1.01998    0.68291   1.00
H1       0.77224    0.90451    0.81022   1.00
H1       0.76114    1.10091    0.80884   1.00
H1       0.72264    0.90052    0.69934   1.00
H1       0.72554    1.09848    0.69266   1.00
C6       0.69944    0.95515    0.65262   1.00
C6       0.71332    1.04119    0.64498   1.00
H2       0.67981    0.93345    0.66507   1.00
H2       0.73589    1.06310    0.64037   1.00
H2       0.67941    0.97286    0.63556   1.00
H2       0.71752    1.02228    0.61986   1.00
C6       0.73007    0.93606    0.62451   1.00
C6       0.67141    1.05942    0.64304   1.00
H2       0.75355    0.92292    0.64165   1.00
H2       0.66475    1.07383    0.67071   1.00
C6       0.71496    0.90459    0.59505   1.00
C6       0.66285    1.08911    0.60939   1.00
H2       0.74391    0.95949    0.60790   1.00
H2       0.65050    1.03546    0.64080   1.00
C6       0.70046    0.86735    0.61632   1.00
C6       0.68706    1.12708    0.61401   1.00
C6       0.68176    0.92074    0.56896   1.00
C6       0.67101    1.07107    0.56875   1.00
C6       0.74928    0.89245    0.56807   1.00
C6       0.61903    1.10054    0.61106   1.00
H2       0.72304    0.85558    0.63549   1.00
H2       0.68243    1.14020    0.64269   1.00
H2       0.67475    0.87330    0.63402   1.00
H2       0.71817    1.12154    0.61072   1.00
H2       0.69254    0.84459    0.59551   1.00
H2       0.67892    1.14863    0.59203   1.00
H2       0.67336    0.89955    0.54671   1.00
H2       0.66232    1.09098    0.54545   1.00
H2       0.65585    0.92725    0.58622   1.00
H2       0.70200    1.06494    0.56502   1.00
H2       0.69094    0.94745    0.55427   1.00
H2       0.65493    1.04385    0.56506   1.00
H2       0.77341    0.88042    0.58505   1.00
H2       0.61179    1.11383    0.63910   1.00
H2       0.74021    0.87025    0.54708   1.00
H2       0.61165    1.12149    0.58822   1.00
H2       0.76030    0.91739    0.55162   1.00
H2       0.60037    1.07502    0.60717   1.00
C4       0.51975    0.75230    0.75420   1.00
C4       0.47809    0.75166    0.75561   1.00
C3       0.54103    0.78473    0.73920   1.00
C3       0.45496    0.78484    0.74599   1.00
C3       0.54146    0.71950    0.76815   1.00
C3       0.45830    0.71675    0.76707   1.00
C2       0.60405    0.75445    0.75310   1.00
C2       0.39378    0.74981    0.75659   1.00
C3       0.58189    0.78592    0.73882   1.00
C3       0.41409    0.78397    0.74625   1.00
C3       0.58304    0.72197    0.76745   1.00
C3       0.41664    0.71700    0.76675   1.00
H1       0.52763    0.80854    0.72763   1.00
H1       0.46694    0.81102    0.73880   1.00
C5       0.52165    0.68536    0.78207   1.00
C5       0.48002    0.68291    0.77865   1.00
H1       0.59549    0.81022    0.72776   1.00
H1       0.39909    0.80884    0.73886   1.00
H1       0.59948    0.69934    0.77736   1.00
H1       0.40152    0.69266    0.77446   1.00
C6       0.54485    0.65262    0.80056   1.00
C6       0.45881    0.64498    0.78668   1.00
H2       0.56655    0.66507    0.82019   1.00
H2       0.43690    0.64037    0.76411   1.00
H2       0.52714    0.63556    0.82059   1.00
H2       0.47772    0.61986    0.78248   1.00
C6       0.56394    0.62451    0.76993   1.00
C6       0.44058    0.64304    0.82859   1.00
H2       0.57708    0.64165    0.74645   1.00
H2       0.42617    0.67071    0.83525   1.00
C6       0.59541    0.59505    0.78504   1.00
C6       0.41089    0.60939    0.83715   1.00
H2       0.54051    0.60790    0.75609   1.00
H2       0.46454    0.64080    0.84950   1.00
C6       0.63265    0.61632    0.79954   1.00
C6       0.37292    0.61401    0.81294   1.00
C6       0.57926    0.56896    0.81824   1.00
C6       0.42893    0.56875    0.82899   1.00
C6       0.60755    0.56807    0.75072   1.00
C6       0.39946    0.61106    0.88097   1.00
H2       0.64442    0.63549    0.77696   1.00
H2       0.35980    0.64269    0.81757   1.00
H2       0.62670    0.63402    0.82525   1.00
H2       0.37846    0.61072    0.78183   1.00
H2       0.65541    0.59551    0.80746   1.00
H2       0.35137    0.59203    0.82108   1.00
H2       0.60045    0.54671    0.82664   1.00
H2       0.40902    0.54545    0.83768   1.00
H2       0.57275    0.58622    0.84415   1.00
H2       0.43506    0.56502    0.79800   1.00
H2       0.55255    0.55427    0.80906   1.00
H2       0.45615    0.56506    0.84507   1.00
H2       0.61958    0.58505    0.72659   1.00
H2       0.38617    0.63910    0.88821   1.00
H2       0.62975    0.54708    0.75979   1.00
H2       0.37851    0.58822    0.88835   1.00
H2       0.58261    0.55162    0.73970   1.00
H2       0.42498    0.60717    0.89963   1.00
C4       0.98025    0.75230    0.74580   1.00
C4       1.02191    0.75166    0.74439   1.00
C3       0.95897    0.78473    0.76080   1.00
C3       1.04504    0.78484    0.75401   1.00
C3       0.95854    0.71950    0.73185   1.00
C3       1.04170    0.71675    0.73293   1.00
C2       0.89595    0.75445    0.74690   1.00
C2       1.10622    0.74981    0.74341   1.00
C3       0.91811    0.78592    0.76118   1.00
C3       1.08591    0.78397    0.75375   1.00
C3       0.91696    0.72197    0.73255   1.00
C3       1.08336    0.71700    0.73325   1.00
H1       0.97237    0.80854    0.77237   1.00
H1       1.03306    0.81102    0.76120   1.00
C5       0.97835    0.68536    0.71793   1.00
C5       1.01998    0.68291    0.72135   1.00
H1       0.90451    0.81022    0.77224   1.00
H1       1.10091    0.80884    0.76114   1.00
H1       0.90052    0.69934    0.72264   1.00
H1       1.09848    0.69266    0.72554   1.00
C6       0.95515    0.65262    0.69944   1.00
C6       1.04119    0.64498    0.71332   1.00
H2       0.93345    0.66507    0.67981   1.00
H2       1.06310    0.64037    0.73589   1.00
H2       0.97286    0.63556    0.67941   1.00
H2       1.02228    0.61986    0.71752   1.00
C6       0.93606    0.62451    0.73007   1.00
C6       1.05942    0.64304    0.67141   1.00
H2       0.92292    0.64165    0.75355   1.00
H2       1.07383    0.67071    0.66475   1.00
C6       0.90459    0.59505    0.71496   1.00
C6       1.08911    0.60939    0.66285   1.00
H2       0.95949    0.60790    0.74391   1.00
H2       1.03546    0.64080    0.65050   1.00
C6       0.86735    0.61632    0.70046   1.00
C6       1.12708    0.61401    0.68706   1.00
C6       0.92074    0.56896    0.68176   1.00
C6       1.07107    0.56875    0.67101   1.00
C6       0.89245    0.56807    0.74928   1.00
C6       1.10054    0.61106    0.61903   1.00
H2       0.85558    0.63549    0.72304   1.00
H2       1.14020    0.64269    0.68243   1.00
H2       0.87330    0.63402    0.67475   1.00
H2       1.12154    0.61072    0.71817   1.00
H2       0.84459    0.59551    0.69254   1.00
H2       1.14863    0.59203    0.67892   1.00
H2       0.89955    0.54671    0.67336   1.00
H2       1.09098    0.54545    0.66232   1.00
H2       0.92725    0.58622    0.65585   1.00
H2       1.06494    0.56502    0.70200   1.00
H2       0.94745    0.55427    0.69094   1.00
H2       1.04385    0.56506    0.65493   1.00
H2       0.88042    0.58505    0.77341   1.00
H2       1.11383    0.63910    0.61179   1.00
H2       0.87025    0.54708    0.74021   1.00
H2       1.12149    0.58822    0.61165   1.00
H2       0.91739    0.55162    0.76030   1.00
H2       1.07502    0.60717    0.60037   1.00
C4       0.75420    0.51975    0.75230   1.00
C4       0.75561    0.47809    0.75166   1.00
C3       0.73920    0.54103    0.78473   1.00
C3       0.74599    0.45496    0.78484   1.00
C3       0.76815    0.54146    0.71950   1.00
C3       0.76707    0.45830    0.71675   1.00
C2       0.75310    0.60405    0.75445   1.00
C2       0.75659    0.39378    0.74981   1.00
C3       0.73882    0.58189    0.78592   1.00
C3       0.74625    0.41409    0.78397   1.00
C3       0.76745    0.58304    0.72197   1.00
C3       0.76675    0.41664    0.71700   1.00
H1       0.72763    0.52763    0.80854   1.00
H1       0.73880    0.46694    0.81102   1.00
C5       0.78207    0.52165    0.68536   1.00
C5       0.77865    0.48002    0.68291   1.00
H1       0.72776    0.59549    0.81022   1.00
H1       0.73886    0.39909    0.80884   1.00
H1       0.77736    0.59948    0.69934   1.00
H1       0.77446    0.40152    0.69266   1.00
C6       0.80056    0.54485    0.65262   1.00
C6       0.78668    0.45881    0.64498   1.00
H2       0.82019    0.56655    0.66507   1.00
H2       0.76411    0.43690    0.64037   1.00
H2       0.82059    0.52714    0.63556   1.00
H2       0.78248    0.47772    0.61986   1.00
C6       0.76993    0.56394    0.62451   1.00
C6       0.82859    0.44058    0.64304   1.00
H2       0.74645    0.57708    0.64165   1.00
H2       0.83525    0.42617    0.67071   1.00
C6       0.78504    0.59541    0.59505   1.00
C6       0.83715    0.41089    0.60939   1.00
H2       0.75609    0.54051    0.60790   1.00
H2       0.84950    0.46454    0.64080   1.00
C6       0.79954    0.63265    0.61632   1.00
C6       0.81294    0.37292    0.61401   1.00
C6       0.81824    0.57926    0.56896   1.00
C6       0.82899    0.42893    0.56875   1.00
C6       0.75072    0.60755    0.56807   1.00
C6       0.88097    0.39946    0.61106   1.00
H2       0.77696    0.64442    0.63549   1.00
H2       0.81757    0.35980    0.64269   1.00
H2       0.82525    0.62670    0.63402   1.00
H2       0.78183    0.37846    0.61072   1.00
H2       0.80746    0.65541    0.59551   1.00
H2       0.82108    0.35137    0.59203   1.00
H2       0.82664    0.60045    0.54671   1.00
H2       0.83768    0.40902    0.54545   1.00
H2       0.84415    0.57275    0.58622   1.00
H2       0.79800    0.43506    0.56502   1.00
H2       0.80906    0.55255    0.55427   1.00
H2       0.84507    0.45615    0.56506   1.00
H2       0.72659    0.61958    0.58505   1.00
H2       0.88821    0.38617    0.63910   1.00
H2       0.75979    0.62975    0.54708   1.00
H2       0.88835    0.37851    0.58822   1.00
H2       0.73970    0.58261    0.55162   1.00
H2       0.89963    0.42498    0.60717   1.00
C4       0.75230    0.75420    0.51975   1.00
C4       0.75166    0.75561    0.47809   1.00
C3       0.78473    0.73920    0.54103   1.00
C3       0.78484    0.74599    0.45496   1.00
C3       0.71950    0.76815    0.54146   1.00
C3       0.71675    0.76707    0.45830   1.00
C2       0.75445    0.75310    0.60405   1.00
C2       0.74981    0.75659    0.39378   1.00
C3       0.78592    0.73882    0.58189   1.00
C3       0.78397    0.74625    0.41409   1.00
C3       0.72197    0.76745    0.58304   1.00
C3       0.71700    0.76675    0.41664   1.00
H1       0.80854    0.72763    0.52763   1.00
H1       0.81102    0.73880    0.46694   1.00
C5       0.68536    0.78207    0.52165   1.00
C5       0.68291    0.77865    0.48002   1.00
H1       0.81022    0.72776    0.59549   1.00
H1       0.80884    0.73886    0.39909   1.00
H1       0.69934    0.77736    0.59948   1.00
H1       0.69266    0.77446    0.40152   1.00
C6       0.65262    0.80056    0.54485   1.00
C6       0.64498    0.78668    0.45881   1.00
H2       0.66507    0.82019    0.56655   1.00
H2       0.64037    0.76411    0.43690   1.00
H2       0.63556    0.82059    0.52714   1.00
H2       0.61986    0.78248    0.47772   1.00
C6       0.62451    0.76993    0.56394   1.00
C6       0.64304    0.82859    0.44058   1.00
H2       0.64165    0.74645    0.57708   1.00
H2       0.67071    0.83525    0.42617   1.00
C6       0.59505    0.78504    0.59541   1.00
C6       0.60939    0.83715    0.41089   1.00
H2       0.60790    0.75609    0.54051   1.00
H2       0.64080    0.84950    0.46454   1.00
C6       0.61632    0.79954    0.63265   1.00
C6       0.61401    0.81294    0.37292   1.00
C6       0.56896    0.81824    0.57926   1.00
C6       0.56875    0.82899    0.42893   1.00
C6       0.56807    0.75072    0.60755   1.00
C6       0.61106    0.88097    0.39946   1.00
H2       0.63549    0.77696    0.64442   1.00
H2       0.64269    0.81757    0.35980   1.00
H2       0.63402    0.82525    0.62670   1.00
H2       0.61072    0.78183    0.37846   1.00
H2       0.59551    0.80746    0.65541   1.00
H2       0.59203    0.82108    0.35137   1.00
H2       0.54671    0.82664    0.60045   1.00
H2       0.54545    0.83768    0.40902   1.00
H2       0.58622    0.84415    0.57275   1.00
H2       0.56502    0.79800    0.43506   1.00
H2       0.55427    0.80906    0.55255   1.00
H2       0.56506    0.84507    0.45615   1.00
H2       0.58505    0.72659    0.61958   1.00
H2       0.63910    0.88821    0.38617   1.00
H2       0.54708    0.75979    0.62975   1.00
H2       0.58822    0.88835    0.37851   1.00
H2       0.55162    0.73970    0.58261   1.00
H2       0.60717    0.89963    0.42498   1.00
C4       0.25230    0.24580    0.98025   1.00
C4       0.25166    0.24439    1.02191   1.00
C3       0.28473    0.26080    0.95897   1.00
C3       0.28484    0.25401    1.04504   1.00
C3       0.21950    0.23185    0.95854   1.00
C3       0.21675    0.23293    1.04170   1.00
C2       0.25445    0.24690    0.89595   1.00
C2       0.24981    0.24341    1.10622   1.00
C3       0.28592    0.26118    0.91811   1.00
C3       0.28397    0.25375    1.08591   1.00
C3       0.22197    0.23255    0.91696   1.00
C3       0.21700    0.23325    1.08336   1.00
H1       0.30854    0.27237    0.97237   1.00
H1       0.31102    0.26120    1.03306   1.00
C5       0.18536    0.21793    0.97835   1.00
C5       0.18291    0.22135    1.01998   1.00
H1       0.31022    0.27224    0.90451   1.00
H1       0.30884    0.26114    1.10091   1.00
H1       0.19934    0.22264    0.90052   1.00
H1       0.19266    0.22554    1.09848   1.00
C6       0.15262    0.19944    0.95515   1.00
C6       0.14498    0.21332    1.04119   1.00
H2       0.16507    0.17981    0.93345   1.00
H2       0.14037    0.23589    1.06310   1.00
H2       0.13556    0.17941    0.97286   1.00
H2       0.11986    0.21752    1.02228   1.00
C6       0.12451    0.23007    0.93606   1.00
C6       0.14304    0.17141    1.05942   1.00
H2       0.14165    0.25355    0.92292   1.00
H2       0.17071    0.16475    1.07383   1.00
C6       0.09505    0.21496    0.90459   1.00
C6       0.10939    0.16285    1.08911   1.00
H2       0.10790    0.24391    0.95949   1.00
H2       0.14080    0.15050    1.03546   1.00
C6       0.11632    0.20046    0.86735   1.00
C6       0.11401    0.18706    1.12708   1.00
C6       0.06896    0.18176    0.92074   1.00
C6       0.06875    0.17101    1.07107   1.00
C6       0.06807    0.24928    0.89245   1.00
C6       0.11106    0.11903    1.10054   1.00
H2       0.13549    0.22304    0.85558   1.00
H2       0.14269    0.18243    1.14020   1.00
H2       0.13402    0.17475    0.87330   1.00
H2       0.11072    0.21817    1.12154   1.00
H2       0.09551    0.19254    0.84459   1.00
H2       0.09203    0.17892    1.14863   1.00
H2       0.04671    0.17336    0.89955   1.00
H2       0.04545    0.16232    1.09098   1.00
H2       0.08622    0.15585    0.92725   1.00
H2       0.06502    0.20200    1.06494   1.00
H2       0.05427    0.19094    0.94745   1.00
H2       0.06506    0.15493    1.04385   1.00
H2       0.08505    0.27341    0.88042   1.00
H2       0.13910    0.11179    1.11383   1.00
H2       0.04708    0.24021    0.87025   1.00
H2       0.08822    0.11165    1.12149   1.00
H2       0.05162    0.26030    0.91739   1.00
H2       0.10717    0.10037    1.07502   1.00
C4       0.24580    0.48025    0.75230   1.00
C4       0.24439    0.52191    0.75166   1.00
C3       0.26080    0.45897    0.78473   1.00
C3       0.25401    0.54504    0.78484   1.00
C3       0.23185    0.45854    0.71950   1.00
C3       0.23293    0.54170    0.71675   1.00
C2       0.24690    0.39595    0.75445   1.00
C2       0.24341    0.60622    0.74981   1.00
C3       0.26118    0.41811    0.78592   1.00
C3       0.25375    0.58591    0.78397   1.00
C3       0.23255    0.41696    0.72197   1.00
C3       0.23325    0.58336    0.71700   1.00
H1       0.27237    0.47237    0.80854   1.00
H1       0.26120    0.53306    0.81102   1.00
C5       0.21793    0.47835    0.68536   1.00
C5       0.22135    0.51998    0.68291   1.00
H1       0.27224    0.40451    0.81022   1.00
H1       0.26114    0.60091    0.80884   1.00
H1       0.22264    0.40052    0.69934   1.00
H1       0.22554    0.59848    0.69266   1.00
C6       0.19944    0.45515    0.65262   1.00
C6       0.21332    0.54119    0.64498   1.00
H2       0.17981    0.43345    0.66507   1.00
H2       0.23589    0.56310    0.64037   1.00
H2       0.17941    0.47286    0.63556   1.00
H2       0.21752    0.52228    0.61986   1.00
C6       0.23007    0.43606    0.62451   1.00
C6       0.17141    0.55942    0.64304   1.00
H2       0.25355    0.42292    0.64165   1.00
H2       0.16475    0.57383    0.67071   1.00
C6       0.21496    0.40459    0.59505   1.00
C6       0.16285    0.58911    0.60939   1.00
H2       0.24391    0.45949    0.60790   1.00
H2       0.15050    0.53546    0.64080   1.00
C6       0.20046    0.36735    0.61632   1.00
C6       0.18706    0.62708    0.61401   1.00
C6       0.18176    0.42074    0.56896   1.00
C6       0.17101    0.57107    0.56875   1.00
C6       0.24928    0.39245    0.56807   1.00
C6       0.11903    0.60054    0.61106   1.00
H2       0.22304    0.35558    0.63549   1.00
H2       0.18243    0.64020    0.64269   1.00
H2       0.17475    0.37330    0.63402   1.00
H2       0.21817    0.62154    0.61072   1.00
H2       0.19254    0.34459    0.59551   1.00
H2       0.17892    0.64863    0.59203   1.00
H2       0.17336    0.39955    0.54671   1.00
H2       0.16232    0.59098    0.54545   1.00
H2       0.15585    0.42725    0.58622   1.00
H2       0.20200    0.56494    0.56502   1.00
H2       0.19094    0.44745    0.55427   1.00
H2       0.15493    0.54385    0.56506   1.00
H2       0.27341    0.38042    0.58505   1.00
H2       0.11179    0.61383    0.63910   1.00
H2       0.24021    0.37025    0.54708   1.00
H2       0.11165    0.62149    0.58822   1.00
H2       0.26030    0.41739    0.55162   1.00
H2       0.10037    0.57502    0.60717   1.00
C4       0.01975    0.25230    0.75420   1.00
C4       -0.02191   0.25166    0.75561   1.00
C3       0.04103    0.28473    0.73920   1.00
C3       -0.04504   0.28484    0.74599   1.00
C3       0.04146    0.21950    0.76815   1.00
C3       -0.04170   0.21675    0.76707   1.00
C2       0.10405    0.25445    0.75310   1.00
C2       -0.10622   0.24981    0.75659   1.00
C3       0.08189    0.28592    0.73882   1.00
C3       -0.08591   0.28397    0.74625   1.00
C3       0.08304    0.22197    0.76745   1.00
C3       -0.08336   0.21700    0.76675   1.00
H1       0.02763    0.30854    0.72763   1.00
H1       -0.03306   0.31102    0.73880   1.00
C5       0.02165    0.18536    0.78207   1.00
C5       -0.01998   0.18291    0.77865   1.00
H1       0.09549    0.31022    0.72776   1.00
H1       -0.10091   0.30884    0.73886   1.00
H1       0.09948    0.19934    0.77736   1.00
H1       -0.09848   0.19266    0.77446   1.00
C6       0.04485    0.15262    0.80056   1.00
C6       -0.04119   0.14498    0.78668   1.00
H2       0.06655    0.16507    0.82019   1.00
H2       -0.06310   0.14037    0.76411   1.00
H2       0.02714    0.13556    0.82059   1.00
H2       -0.02228   0.11986    0.78248   1.00
C6       0.06394    0.12451    0.76993   1.00
C6       -0.05942   0.14304    0.82859   1.00
H2       0.07708    0.14165    0.74645   1.00
H2       -0.07383   0.17071    0.83525   1.00
C6       0.09541    0.09505    0.78504   1.00
C6       -0.08911   0.10939    0.83715   1.00
H2       0.04051    0.10790    0.75609   1.00
H2       -0.03546   0.14080    0.84950   1.00
C6       0.13265    0.11632    0.79954   1.00
C6       -0.12708   0.11401    0.81294   1.00
C6       0.07926    0.06896    0.81824   1.00
C6       -0.07107   0.06875    0.82899   1.00
C6       0.10755    0.06807    0.75072   1.00
C6       -0.10054   0.11106    0.88097   1.00
H2       0.14442    0.13549    0.77696   1.00
H2       -0.14020   0.14269    0.81757   1.00
H2       0.12670    0.13402    0.82525   1.00
H2       -0.12154   0.11072    0.78183   1.00
H2       0.15541    0.09551    0.80746   1.00
H2       -0.14863   0.09203    0.82108   1.00
H2       0.10045    0.04671    0.82664   1.00
H2       -0.09098   0.04545    0.83768   1.00
H2       0.07275    0.08622    0.84415   1.00
H2       -0.06494   0.06502    0.79800   1.00
H2       0.05255    0.05427    0.80906   1.00
H2       -0.04385   0.06506    0.84507   1.00
H2       0.11958    0.08505    0.72659   1.00
H2       -0.11383   0.13910    0.88821   1.00
H2       0.12975    0.04708    0.75979   1.00
H2       -0.12149   0.08822    0.88835   1.00
H2       0.08261    0.05162    0.73970   1.00
H2       -0.07502   0.10717    0.89963   1.00
C4       0.48025    0.25230    0.74580   1.00
C4       0.52191    0.25166    0.74439   1.00
C3       0.45897    0.28473    0.76080   1.00
C3       0.54504    0.28484    0.75401   1.00
C3       0.45854    0.21950    0.73185   1.00
C3       0.54170    0.21675    0.73293   1.00
C2       0.39595    0.25445    0.74690   1.00
C2       0.60622    0.24981    0.74341   1.00
C3       0.41811    0.28592    0.76118   1.00
C3       0.58591    0.28397    0.75375   1.00
C3       0.41696    0.22197    0.73255   1.00
C3       0.58336    0.21700    0.73325   1.00
H1       0.47237    0.30854    0.77237   1.00
H1       0.53306    0.31102    0.76120   1.00
C5       0.47835    0.18536    0.71793   1.00
C5       0.51998    0.18291    0.72135   1.00
H1       0.40451    0.31022    0.77224   1.00
H1       0.60091    0.30884    0.76114   1.00
H1       0.40052    0.19934    0.72264   1.00
H1       0.59848    0.19266    0.72554   1.00
C6       0.45515    0.15262    0.69944   1.00
C6       0.54119    0.14498    0.71332   1.00
H2       0.43345    0.16507    0.67981   1.00
H2       0.56310    0.14037    0.73589   1.00
H2       0.47286    0.13556    0.67941   1.00
H2       0.52228    0.11986    0.71752   1.00
C6       0.43606    0.12451    0.73007   1.00
C6       0.55942    0.14304    0.67141   1.00
H2       0.42292    0.14165    0.75355   1.00
H2       0.57383    0.17071    0.66475   1.00
C6       0.40459    0.09505    0.71496   1.00
C6       0.58911    0.10939    0.66285   1.00
H2       0.45949    0.10790    0.74391   1.00
H2       0.53546    0.14080    0.65050   1.00
C6       0.36735    0.11632    0.70046   1.00
C6       0.62708    0.11401    0.68706   1.00
C6       0.42074    0.06896    0.68176   1.00
C6       0.57107    0.06875    0.67101   1.00
C6       0.39245    0.06807    0.74928   1.00
C6       0.60054    0.11106    0.61903   1.00
H2       0.35558    0.13549    0.72304   1.00
H2       0.64020    0.14269    0.68243   1.00
H2       0.37330    0.13402    0.67475   1.00
H2       0.62154    0.11072    0.71817   1.00
H2       0.34459    0.09551    0.69254   1.00
H2       0.64863    0.09203    0.67892   1.00
H2       0.39955    0.04671    0.67336   1.00
H2       0.59098    0.04545    0.66232   1.00
H2       0.42725    0.08622    0.65585   1.00
H2       0.56494    0.06502    0.70200   1.00
H2       0.44745    0.05427    0.69094   1.00
H2       0.54385    0.06506    0.65493   1.00
H2       0.38042    0.08505    0.77341   1.00
H2       0.61383    0.13910    0.61179   1.00
H2       0.37025    0.04708    0.74021   1.00
H2       0.62149    0.08822    0.61165   1.00
H2       0.41739    0.05162    0.76030   1.00
H2       0.57502    0.10717    0.60037   1.00
C4       0.25420    0.01975    0.75230   1.00
C4       0.25561    -0.02191   0.75166   1.00
C3       0.23920    0.04103    0.78473   1.00
C3       0.24599    -0.04504   0.78484   1.00
C3       0.26815    0.04146    0.71950   1.00
C3       0.26707    -0.04170   0.71675   1.00
C2       0.25310    0.10405    0.75445   1.00
C2       0.25659    -0.10622   0.74981   1.00
C3       0.23882    0.08189    0.78592   1.00
C3       0.24625    -0.08591   0.78397   1.00
C3       0.26745    0.08304    0.72197   1.00
C3       0.26675    -0.08336   0.71700   1.00
H1       0.22763    0.02763    0.80854   1.00
H1       0.23880    -0.03306   0.81102   1.00
C5       0.28207    0.02165    0.68536   1.00
C5       0.27865    -0.01998   0.68291   1.00
H1       0.22776    0.09549    0.81022   1.00
H1       0.23886    -0.10091   0.80884   1.00
H1       0.27736    0.09948    0.69934   1.00
H1       0.27446    -0.09848   0.69266   1.00
C6       0.30056    0.04485    0.65262   1.00
C6       0.28668    -0.04119   0.64498   1.00
H2       0.32019    0.06655    0.66507   1.00
H2       0.26411    -0.06310   0.64037   1.00
H2       0.32059    0.02714    0.63556   1.00
H2       0.28248    -0.02228   0.61986   1.00
C6       0.26993    0.06394    0.62451   1.00
C6       0.32859    -0.05942   0.64304   1.00
H2       0.24645    0.07708    0.64165   1.00
H2       0.33525    -0.07383   0.67071   1.00
C6       0.28504    0.09541    0.59505   1.00
C6       0.33715    -0.08911   0.60939   1.00
H2       0.25609    0.04051    0.60790   1.00
H2       0.34950    -0.03546   0.64080   1.00
C6       0.29954    0.13265    0.61632   1.00
C6       0.31294    -0.12708   0.61401   1.00
C6       0.31824    0.07926    0.56896   1.00
C6       0.32899    -0.07107   0.56875   1.00
C6       0.25072    0.10755    0.56807   1.00
C6       0.38097    -0.10054   0.61106   1.00
H2       0.27696    0.14442    0.63549   1.00
H2       0.31757    -0.14020   0.64269   1.00
H2       0.32525    0.12670    0.63402   1.00
H2       0.28183    -0.12154   0.61072   1.00
H2       0.30746    0.15541    0.59551   1.00
H2       0.32108    -0.14863   0.59203   1.00
H2       0.32664    0.10045    0.54671   1.00
H2       0.33768    -0.09098   0.54545   1.00
H2       0.34415    0.07275    0.58622   1.00
H2       0.29800    -0.06494   0.56502   1.00
H2       0.30906    0.05255    0.55427   1.00
H2       0.34507    -0.04385   0.56506   1.00
H2       0.22659    0.11958    0.58505   1.00
H2       0.38821    -0.11383   0.63910   1.00
H2       0.25979    0.12975    0.54708   1.00
H2       0.38835    -0.12149   0.58822   1.00
H2       0.23970    0.08261    0.55162   1.00
H2       0.39963    -0.07502   0.60717   1.00
C4       0.25230    0.25420    0.51975   1.00
C4       0.25166    0.25561    0.47809   1.00
C3       0.28473    0.23920    0.54103   1.00
C3       0.28484    0.24599    0.45496   1.00
C3       0.21950    0.26815    0.54146   1.00
C3       0.21675    0.26707    0.45830   1.00
C2       0.25445    0.25310    0.60405   1.00
C2       0.24981    0.25659    0.39378   1.00
C3       0.28592    0.23882    0.58189   1.00
C3       0.28397    0.24625    0.41409   1.00
C3       0.22197    0.26745    0.58304   1.00
C3       0.21700    0.26675    0.41664   1.00
H1       0.30854    0.22763    0.52763   1.00
H1       0.31102    0.23880    0.46694   1.00
C5       0.18536    0.28207    0.52165   1.00
C5       0.18291    0.27865    0.48002   1.00
H1       0.31022    0.22776    0.59549   1.00
H1       0.30884    0.23886    0.39909   1.00
H1       0.19934    0.27736    0.59948   1.00
H1       0.19266    0.27446    0.40152   1.00
C6       0.15262    0.30056    0.54485   1.00
C6       0.14498    0.28668    0.45881   1.00
H2       0.16507    0.32019    0.56655   1.00
H2       0.14037    0.26411    0.43690   1.00
H2       0.13556    0.32059    0.52714   1.00
H2       0.11986    0.28248    0.47772   1.00
C6       0.12451    0.26993    0.56394   1.00
C6       0.14304    0.32859    0.44058   1.00
H2       0.14165    0.24645    0.57708   1.00
H2       0.17071    0.33525    0.42617   1.00
C6       0.09505    0.28504    0.59541   1.00
C6       0.10939    0.33715    0.41089   1.00
H2       0.10790    0.25609    0.54051   1.00
H2       0.14080    0.34950    0.46454   1.00
C6       0.11632    0.29954    0.63265   1.00
C6       0.11401    0.31294    0.37292   1.00
C6       0.06896    0.31824    0.57926   1.00
C6       0.06875    0.32899    0.42893   1.00
C6       0.06807    0.25072    0.60755   1.00
C6       0.11106    0.38097    0.39946   1.00
H2       0.13549    0.27696    0.64442   1.00
H2       0.14269    0.31757    0.35980   1.00
H2       0.13402    0.32525    0.62670   1.00
H2       0.11072    0.28183    0.37846   1.00
H2       0.09551    0.30746    0.65541   1.00
H2       0.09203    0.32108    0.35137   1.00
H2       0.04671    0.32664    0.60045   1.00
H2       0.04545    0.33768    0.40902   1.00
H2       0.08622    0.34415    0.57275   1.00
H2       0.06502    0.29800    0.43506   1.00
H2       0.05427    0.30906    0.55255   1.00
H2       0.06506    0.34507    0.45615   1.00
H2       0.08505    0.22659    0.61958   1.00
H2       0.13910    0.38821    0.38617   1.00
H2       0.04708    0.25979    0.62975   1.00
H2       0.08822    0.38835    0.37851   1.00
H2       0.05162    0.23970    0.58261   1.00
H2       0.10717    0.39963    0.42498   1.00
C4       0.25230    0.74580    0.48025   1.00
C4       0.25166    0.74439    0.52191   1.00
C3       0.28473    0.76080    0.45897   1.00
C3       0.28484    0.75401    0.54504   1.00
C3       0.21950    0.73185    0.45854   1.00
C3       0.21675    0.73293    0.54170   1.00
C2       0.25445    0.74690    0.39595   1.00
C2       0.24981    0.74341    0.60622   1.00
C3       0.28592    0.76118    0.41811   1.00
C3       0.28397    0.75375    0.58591   1.00
C3       0.22197    0.73255    0.41696   1.00
C3       0.21700    0.73325    0.58336   1.00
H1       0.30854    0.77237    0.47237   1.00
H1       0.31102    0.76120    0.53306   1.00
C5       0.18536    0.71793    0.47835   1.00
C5       0.18291    0.72135    0.51998   1.00
H1       0.31022    0.77224    0.40451   1.00
H1       0.30884    0.76114    0.60091   1.00
H1       0.19934    0.72264    0.40052   1.00
H1       0.19266    0.72554    0.59848   1.00
C6       0.15262    0.69944    0.45515   1.00
C6       0.14498    0.71332    0.54119   1.00
H2       0.16507    0.67981    0.43345   1.00
H2       0.14037    0.73589    0.56310   1.00
H2       0.13556    0.67941    0.47286   1.00
H2       0.11986    0.71752    0.52228   1.00
C6       0.12451    0.73007    0.43606   1.00
C6       0.14304    0.67141    0.55942   1.00
H2       0.14165    0.75355    0.42292   1.00
H2       0.17071    0.66475    0.57383   1.00
C6       0.09505    0.71496    0.40459   1.00
C6       0.10939    0.66285    0.58911   1.00
H2       0.10790    0.74391    0.45949   1.00
H2       0.14080    0.65050    0.53546   1.00
C6       0.11632    0.70046    0.36735   1.00
C6       0.11401    0.68706    0.62708   1.00
C6       0.06896    0.68176    0.42074   1.00
C6       0.06875    0.67101    0.57107   1.00
C6       0.06807    0.74928    0.39245   1.00
C6       0.11106    0.61903    0.60054   1.00
H2       0.13549    0.72304    0.35558   1.00
H2       0.14269    0.68243    0.64020   1.00
H2       0.13402    0.67475    0.37330   1.00
H2       0.11072    0.71817    0.62154   1.00
H2       0.09551    0.69254    0.34459   1.00
H2       0.09203    0.67892    0.64863   1.00
H2       0.04671    0.67336    0.39955   1.00
H2       0.04545    0.66232    0.59098   1.00
H2       0.08622    0.65585    0.42725   1.00
H2       0.06502    0.70200    0.56494   1.00
H2       0.05427    0.69094    0.44745   1.00
H2       0.06506    0.65493    0.54385   1.00
H2       0.08505    0.77341    0.38042   1.00
H2       0.13910    0.61179    0.61383   1.00
H2       0.04708    0.74021    0.37025   1.00
H2       0.08822    0.61165    0.62149   1.00
H2       0.05162    0.76030    0.41739   1.00
H2       0.10717    0.60037    0.57502   1.00
C4       0.24580    0.98025    0.25230   1.00
C4       0.24439    1.02191    0.25166   1.00
C3       0.26080    0.95897    0.28473   1.00
C3       0.25401    1.04504    0.28484   1.00
C3       0.23185    0.95854    0.21950   1.00
C3       0.23293    1.04170    0.21675   1.00
C2       0.24690    0.89595    0.25445   1.00
C2       0.24341    1.10622    0.24981   1.00
C3       0.26118    0.91811    0.28592   1.00
C3       0.25375    1.08591    0.28397   1.00
C3       0.23255    0.91696    0.22197   1.00
C3       0.23325    1.08336    0.21700   1.00
H1       0.27237    0.97237    0.30854   1.00
H1       0.26120    1.03306    0.31102   1.00
C5       0.21793    0.97835    0.18536   1.00
C5       0.22135    1.01998    0.18291   1.00
H1       0.27224    0.90451    0.31022   1.00
H1       0.26114    1.10091    0.30884   1.00
H1       0.22264    0.90052    0.19934   1.00
H1       0.22554    1.09848    0.19266   1.00
C6       0.19944    0.95515    0.15262   1.00
C6       0.21332    1.04119    0.14498   1.00
H2       0.17981    0.93345    0.16507   1.00
H2       0.23589    1.06310    0.14037   1.00
H2       0.17941    0.97286    0.13556   1.00
H2       0.21752    1.02228    0.11986   1.00
C6       0.23007    0.93606    0.12451   1.00
C6       0.17141    1.05942    0.14304   1.00
H2       0.25355    0.92292    0.14165   1.00
H2       0.16475    1.07383    0.17071   1.00
C6       0.21496    0.90459    0.09505   1.00
C6       0.16285    1.08911    0.10939   1.00
H2       0.24391    0.95949    0.10790   1.00
H2       0.15050    1.03546    0.14080   1.00
C6       0.20046    0.86735    0.11632   1.00
C6       0.18706    1.12708    0.11401   1.00
C6       0.18176    0.92074    0.06896   1.00
C6       0.17101    1.07107    0.06875   1.00
C6       0.24928    0.89245    0.06807   1.00
C6       0.11903    1.10054    0.11106   1.00
H2       0.22304    0.85558    0.13549   1.00
H2       0.18243    1.14020    0.14269   1.00
H2       0.17475    0.87330    0.13402   1.00
H2       0.21817    1.12154    0.11072   1.00
H2       0.19254    0.84459    0.09551   1.00
H2       0.17892    1.14863    0.09203   1.00
H2       0.17336    0.89955    0.04671   1.00
H2       0.16232    1.09098    0.04545   1.00
H2       0.15585    0.92725    0.08622   1.00
H2       0.20200    1.06494    0.06502   1.00
H2       0.19094    0.94745    0.05427   1.00
H2       0.15493    1.04385    0.06506   1.00
H2       0.27341    0.88042    0.08505   1.00
H2       0.11179    1.11383    0.13910   1.00
H2       0.24021    0.87025    0.04708   1.00
H2       0.11165    1.12149    0.08822   1.00
H2       0.26030    0.91739    0.05162   1.00
H2       0.10037    1.07502    0.10717   1.00
C4       0.01975    0.75230    0.25420   1.00
C4       -0.02191   0.75166    0.25561   1.00
C3       0.04103    0.78473    0.23920   1.00
C3       -0.04504   0.78484    0.24599   1.00
C3       0.04146    0.71950    0.26815   1.00
C3       -0.04170   0.71675    0.26707   1.00
C2       0.10405    0.75445    0.25310   1.00
C2       -0.10622   0.74981    0.25659   1.00
C3       0.08189    0.78592    0.23882   1.00
C3       -0.08591   0.78397    0.24625   1.00
C3       0.08304    0.72197    0.26745   1.00
C3       -0.08336   0.71700    0.26675   1.00
H1       0.02763    0.80854    0.22763   1.00
H1       -0.03306   0.81102    0.23880   1.00
C5       0.02165    0.68536    0.28207   1.00
C5       -0.01998   0.68291    0.27865   1.00
H1       0.09549    0.81022    0.22776   1.00
H1       -0.10091   0.80884    0.23886   1.00
H1       0.09948    0.69934    0.27736   1.00
H1       -0.09848   0.69266    0.27446   1.00
C6       0.04485    0.65262    0.30056   1.00
C6       -0.04119   0.64498    0.28668   1.00
H2       0.06655    0.66507    0.32019   1.00
H2       -0.06310   0.64037    0.26411   1.00
H2       0.02714    0.63556    0.32059   1.00
H2       -0.02228   0.61986    0.28248   1.00
C6       0.06394    0.62451    0.26993   1.00
C6       -0.05942   0.64304    0.32859   1.00
H2       0.07708    0.64165    0.24645   1.00
H2       -0.07383   0.67071    0.33525   1.00
C6       0.09541    0.59505    0.28504   1.00
C6       -0.08911   0.60939    0.33715   1.00
H2       0.04051    0.60790    0.25609   1.00
H2       -0.03546   0.64080    0.34950   1.00
C6       0.13265    0.61632    0.29954   1.00
C6       -0.12708   0.61401    0.31294   1.00
C6       0.07926    0.56896    0.31824   1.00
C6       -0.07107   0.56875    0.32899   1.00
C6       0.10755    0.56807    0.25072   1.00
C6       -0.10054   0.61106    0.38097   1.00
H2       0.14442    0.63549    0.27696   1.00
H2       -0.14020   0.64269    0.31757   1.00
H2       0.12670    0.63402    0.32525   1.00
H2       -0.12154   0.61072    0.28183   1.00
H2       0.15541    0.59551    0.30746   1.00
H2       -0.14863   0.59203    0.32108   1.00
H2       0.10045    0.54671    0.32664   1.00
H2       -0.09098   0.54545    0.33768   1.00
H2       0.07275    0.58622    0.34415   1.00
H2       -0.06494   0.56502    0.29800   1.00
H2       0.05255    0.55427    0.30906   1.00
H2       -0.04385   0.56506    0.34507   1.00
H2       0.11958    0.58505    0.22659   1.00
H2       -0.11383   0.63910    0.38821   1.00
H2       0.12975    0.54708    0.25979   1.00
H2       -0.12149   0.58822    0.38835   1.00
H2       0.08261    0.55162    0.23970   1.00
H2       -0.07502   0.60717    0.39963   1.00
C4       0.48025    0.75230    0.24580   1.00
C4       0.52191    0.75166    0.24439   1.00
C3       0.45897    0.78473    0.26080   1.00
C3       0.54504    0.78484    0.25401   1.00
C3       0.45854    0.71950    0.23185   1.00
C3       0.54170    0.71675    0.23293   1.00
C2       0.39595    0.75445    0.24690   1.00
C2       0.60622    0.74981    0.24341   1.00
C3       0.41811    0.78592    0.26118   1.00
C3       0.58591    0.78397    0.25375   1.00
C3       0.41696    0.72197    0.23255   1.00
C3       0.58336    0.71700    0.23325   1.00
H1       0.47237    0.80854    0.27237   1.00
H1       0.53306    0.81102    0.26120   1.00
C5       0.47835    0.68536    0.21793   1.00
C5       0.51998    0.68291    0.22135   1.00
H1       0.40451    0.81022    0.27224   1.00
H1       0.60091    0.80884    0.26114   1.00
H1       0.40052    0.69934    0.22264   1.00
H1       0.59848    0.69266    0.22554   1.00
C6       0.45515    0.65262    0.19944   1.00
C6       0.54119    0.64498    0.21332   1.00
H2       0.43345    0.66507    0.17981   1.00
H2       0.56310    0.64037    0.23589   1.00
H2       0.47286    0.63556    0.17941   1.00
H2       0.52228    0.61986    0.21752   1.00
C6       0.43606    0.62451    0.23007   1.00
C6       0.55942    0.64304    0.17141   1.00
H2       0.42292    0.64165    0.25355   1.00
H2       0.57383    0.67071    0.16475   1.00
C6       0.40459    0.59505    0.21496   1.00
C6       0.58911    0.60939    0.16285   1.00
H2       0.45949    0.60790    0.24391   1.00
H2       0.53546    0.64080    0.15050   1.00
C6       0.36735    0.61632    0.20046   1.00
C6       0.62708    0.61401    0.18706   1.00
C6       0.42074    0.56896    0.18176   1.00
C6       0.57107    0.56875    0.17101   1.00
C6       0.39245    0.56807    0.24928   1.00
C6       0.60054    0.61106    0.11903   1.00
H2       0.35558    0.63549    0.22304   1.00
H2       0.64020    0.64269    0.18243   1.00
H2       0.37330    0.63402    0.17475   1.00
H2       0.62154    0.61072    0.21817   1.00
H2       0.34459    0.59551    0.19254   1.00
H2       0.64863    0.59203    0.17892   1.00
H2       0.39955    0.54671    0.17336   1.00
H2       0.59098    0.54545    0.16232   1.00
H2       0.42725    0.58622    0.15585   1.00
H2       0.56494    0.56502    0.20200   1.00
H2       0.44745    0.55427    0.19094   1.00
H2       0.54385    0.56506    0.15493   1.00
H2       0.38042    0.58505    0.27341   1.00
H2       0.61383    0.63910    0.11179   1.00
H2       0.37025    0.54708    0.24021   1.00
H2       0.62149    0.58822    0.11165   1.00
H2       0.41739    0.55162    0.26030   1.00
H2       0.57502    0.60717    0.10037   1.00
C4       0.25420    0.51975    0.25230   1.00
C4       0.25561    0.47809    0.25166   1.00
C3       0.23920    0.54103    0.28473   1.00
C3       0.24599    0.45496    0.28484   1.00
C3       0.26815    0.54146    0.21950   1.00
C3       0.26707    0.45830    0.21675   1.00
C2       0.25310    0.60405    0.25445   1.00
C2       0.25659    0.39378    0.24981   1.00
C3       0.23882    0.58189    0.28592   1.00
C3       0.24625    0.41409    0.28397   1.00
C3       0.26745    0.58304    0.22197   1.00
C3       0.26675    0.41664    0.21700   1.00
H1       0.22763    0.52763    0.30854   1.00
H1       0.23880    0.46694    0.31102   1.00
C5       0.28207    0.52165    0.18536   1.00
C5       0.27865    0.48002    0.18291   1.00
H1       0.22776    0.59549    0.31022   1.00
H1       0.23886    0.39909    0.30884   1.00
H1       0.27736    0.59948    0.19934   1.00
H1       0.27446    0.40152    0.19266   1.00
C6       0.30056    0.54485    0.15262   1.00
C6       0.28668    0.45881    0.14498   1.00
H2       0.32019    0.56655    0.16507   1.00
H2       0.26411    0.43690    0.14037   1.00
H2       0.32059    0.52714    0.13556   1.00
H2       0.28248    0.47772    0.11986   1.00
C6       0.26993    0.56394    0.12451   1.00
C6       0.32859    0.44058    0.14304   1.00
H2       0.24645    0.57708    0.14165   1.00
H2       0.33525    0.42617    0.17071   1.00
C6       0.28504    0.59541    0.09505   1.00
C6       0.33715    0.41089    0.10939   1.00
H2       0.25609    0.54051    0.10790   1.00
H2       0.34950    0.46454    0.14080   1.00
C6       0.29954    0.63265    0.11632   1.00
C6       0.31294    0.37292    0.11401   1.00
C6       0.31824    0.57926    0.06896   1.00
C6       0.32899    0.42893    0.06875   1.00
C6       0.25072    0.60755    0.06807   1.00
C6       0.38097    0.39946    0.11106   1.00
H2       0.27696    0.64442    0.13549   1.00
H2       0.31757    0.35980    0.14269   1.00
H2       0.32525    0.62670    0.13402   1.00
H2       0.28183    0.37846    0.11072   1.00
H2       0.30746    0.65541    0.09551   1.00
H2       0.32108    0.35137    0.09203   1.00
H2       0.32664    0.60045    0.04671   1.00
H2       0.33768    0.40902    0.04545   1.00
H2       0.34415    0.57275    0.08622   1.00
H2       0.29800    0.43506    0.06502   1.00
H2       0.30906    0.55255    0.05427   1.00
H2       0.34507    0.45615    0.06506   1.00
H2       0.22659    0.61958    0.08505   1.00
H2       0.38821    0.38617    0.13910   1.00
H2       0.25979    0.62975    0.04708   1.00
H2       0.38835    0.37851    0.08822   1.00
H2       0.23970    0.58261    0.05162   1.00
H2       0.39963    0.42498    0.10717   1.00
C4       0.25230    0.75420    0.01975   1.00
C4       0.25166    0.75561    -0.02191   1.00
C3       0.28473    0.73920    0.04103   1.00
C3       0.28484    0.74599    -0.04504   1.00
C3       0.21950    0.76815    0.04146   1.00
C3       0.21675    0.76707    -0.04170   1.00
C2       0.25445    0.75310    0.10405   1.00
C2       0.24981    0.75659    -0.10622   1.00
C3       0.28592    0.73882    0.08189   1.00
C3       0.28397    0.74625    -0.08591   1.00
C3       0.22197    0.76745    0.08304   1.00
C3       0.21700    0.76675    -0.08336   1.00
H1       0.30854    0.72763    0.02763   1.00
H1       0.31102    0.73880    -0.03306   1.00
C5       0.18536    0.78207    0.02165   1.00
C5       0.18291    0.77865    -0.01998   1.00
H1       0.31022    0.72776    0.09549   1.00
H1       0.30884    0.73886    -0.10091   1.00
H1       0.19934    0.77736    0.09948   1.00
H1       0.19266    0.77446    -0.09848   1.00
C6       0.15262    0.80056    0.04485   1.00
C6       0.14498    0.78668    -0.04119   1.00
H2       0.16507    0.82019    0.06655   1.00
H2       0.14037    0.76411    -0.06310   1.00
H2       0.13556    0.82059    0.02714   1.00
H2       0.11986    0.78248    -0.02228   1.00
C6       0.12451    0.76993    0.06394   1.00
C6       0.14304    0.82859    -0.05942   1.00
H2       0.14165    0.74645    0.07708   1.00
H2       0.17071    0.83525    -0.07383   1.00
C6       0.09505    0.78504    0.09541   1.00
C6       0.10939    0.83715    -0.08911   1.00
H2       0.10790    0.75609    0.04051   1.00
H2       0.14080    0.84950    -0.03546   1.00
C6       0.11632    0.79954    0.13265   1.00
C6       0.11401    0.81294    -0.12708   1.00
C6       0.06896    0.81824    0.07926   1.00
C6       0.06875    0.82899    -0.07107   1.00
C6       0.06807    0.75072    0.10755   1.00
C6       0.11106    0.88097    -0.10054   1.00
H2       0.13549    0.77696    0.14442   1.00
H2       0.14269    0.81757    -0.14020   1.00
H2       0.13402    0.82525    0.12670   1.00
H2       0.11072    0.78183    -0.12154   1.00
H2       0.09551    0.80746    0.15541   1.00
H2       0.09203    0.82108    -0.14863   1.00
H2       0.04671    0.82664    0.10045   1.00
H2       0.04545    0.83768    -0.09098   1.00
H2       0.08622    0.84415    0.07275   1.00
H2       0.06502    0.79800    -0.06494   1.00
H2       0.05427    0.80906    0.05255   1.00
H2       0.06506    0.84507    -0.04385   1.00
H2       0.08505    0.72659    0.11958   1.00
H2       0.13910    0.88821    -0.11383   1.00
H2       0.04708    0.75979    0.12975   1.00
H2       0.08822    0.88835    -0.12149   1.00
H2       0.05162    0.73970    0.08261   1.00
H2       0.10717    0.89963    -0.07502   1.00
C4       0.75230    0.24580    0.48025   1.00
C4       0.75166    0.24439    0.52191   1.00
C3       0.78473    0.26080    0.45897   1.00
C3       0.78484    0.25401    0.54504   1.00
C3       0.71950    0.23185    0.45854   1.00
C3       0.71675    0.23293    0.54170   1.00
C2       0.75445    0.24690    0.39595   1.00
C2       0.74981    0.24341    0.60622   1.00
C3       0.78592    0.26118    0.41811   1.00
C3       0.78397    0.25375    0.58591   1.00
C3       0.72197    0.23255    0.41696   1.00
C3       0.71700    0.23325    0.58336   1.00
H1       0.80854    0.27237    0.47237   1.00
H1       0.81102    0.26120    0.53306   1.00
C5       0.68536    0.21793    0.47835   1.00
C5       0.68291    0.22135    0.51998   1.00
H1       0.81022    0.27224    0.40451   1.00
H1       0.80884    0.26114    0.60091   1.00
H1       0.69934    0.22264    0.40052   1.00
H1       0.69266    0.22554    0.59848   1.00
C6       0.65262    0.19944    0.45515   1.00
C6       0.64498    0.21332    0.54119   1.00
H2       0.66507    0.17981    0.43345   1.00
H2       0.64037    0.23589    0.56310   1.00
H2       0.63556    0.17941    0.47286   1.00
H2       0.61986    0.21752    0.52228   1.00
C6       0.62451    0.23007    0.43606   1.00
C6       0.64304    0.17141    0.55942   1.00
H2       0.64165    0.25355    0.42292   1.00
H2       0.67071    0.16475    0.57383   1.00
C6       0.59505    0.21496    0.40459   1.00
C6       0.60939    0.16285    0.58911   1.00
H2       0.60790    0.24391    0.45949   1.00
H2       0.64080    0.15050    0.53546   1.00
C6       0.61632    0.20046    0.36735   1.00
C6       0.61401    0.18706    0.62708   1.00
C6       0.56896    0.18176    0.42074   1.00
C6       0.56875    0.17101    0.57107   1.00
C6       0.56807    0.24928    0.39245   1.00
C6       0.61106    0.11903    0.60054   1.00
H2       0.63549    0.22304    0.35558   1.00
H2       0.64269    0.18243    0.64020   1.00
H2       0.63402    0.17475    0.37330   1.00
H2       0.61072    0.21817    0.62154   1.00
H2       0.59551    0.19254    0.34459   1.00
H2       0.59203    0.17892    0.64863   1.00
H2       0.54671    0.17336    0.39955   1.00
H2       0.54545    0.16232    0.59098   1.00
H2       0.58622    0.15585    0.42725   1.00
H2       0.56502    0.20200    0.56494   1.00
H2       0.55427    0.19094    0.44745   1.00
H2       0.56506    0.15493    0.54385   1.00
H2       0.58505    0.27341    0.38042   1.00
H2       0.63910    0.11179    0.61383   1.00
H2       0.54708    0.24021    0.37025   1.00
H2       0.58822    0.11165    0.62149   1.00
H2       0.55162    0.26030    0.41739   1.00
H2       0.60717    0.10037    0.57502   1.00
C4       0.74580    0.48025    0.25230   1.00
C4       0.74439    0.52191    0.25166   1.00
C3       0.76080    0.45897    0.28473   1.00
C3       0.75401    0.54504    0.28484   1.00
C3       0.73185    0.45854    0.21950   1.00
C3       0.73293    0.54170    0.21675   1.00
C2       0.74690    0.39595    0.25445   1.00
C2       0.74341    0.60622    0.24981   1.00
C3       0.76118    0.41811    0.28592   1.00
C3       0.75375    0.58591    0.28397   1.00
C3       0.73255    0.41696    0.22197   1.00
C3       0.73325    0.58336    0.21700   1.00
H1       0.77237    0.47237    0.30854   1.00
H1       0.76120    0.53306    0.31102   1.00
C5       0.71793    0.47835    0.18536   1.00
C5       0.72135    0.51998    0.18291   1.00
H1       0.77224    0.40451    0.31022   1.00
H1       0.76114    0.60091    0.30884   1.00
H1       0.72264    0.40052    0.19934   1.00
H1       0.72554    0.59848    0.19266   1.00
C6       0.69944    0.45515    0.15262   1.00
C6       0.71332    0.54119    0.14498   1.00
H2       0.67981    0.43345    0.16507   1.00
H2       0.73589    0.56310    0.14037   1.00
H2       0.67941    0.47286    0.13556   1.00
H2       0.71752    0.52228    0.11986   1.00
C6       0.73007    0.43606    0.12451   1.00
C6       0.67141    0.55942    0.14304   1.00
H2       0.75355    0.42292    0.14165   1.00
H2       0.66475    0.57383    0.17071   1.00
C6       0.71496    0.40459    0.09505   1.00
C6       0.66285    0.58911    0.10939   1.00
H2       0.74391    0.45949    0.10790   1.00
H2       0.65050    0.53546    0.14080   1.00
C6       0.70046    0.36735    0.11632   1.00
C6       0.68706    0.62708    0.11401   1.00
C6       0.68176    0.42074    0.06896   1.00
C6       0.67101    0.57107    0.06875   1.00
C6       0.74928    0.39245    0.06807   1.00
C6       0.61903    0.60054    0.11106   1.00
H2       0.72304    0.35558    0.13549   1.00
H2       0.68243    0.64020    0.14269   1.00
H2       0.67475    0.37330    0.13402   1.00
H2       0.71817    0.62154    0.11072   1.00
H2       0.69254    0.34459    0.09551   1.00
H2       0.67892    0.64863    0.09203   1.00
H2       0.67336    0.39955    0.04671   1.00
H2       0.66232    0.59098    0.04545   1.00
H2       0.65585    0.42725    0.08622   1.00
H2       0.70200    0.56494    0.06502   1.00
H2       0.69094    0.44745    0.05427   1.00
H2       0.65493    0.54385    0.06506   1.00
H2       0.77341    0.38042    0.08505   1.00
H2       0.61179    0.61383    0.13910   1.00
H2       0.74021    0.37025    0.04708   1.00
H2       0.61165    0.62149    0.08822   1.00
H2       0.76030    0.41739    0.05162   1.00
H2       0.60037    0.57502    0.10717   1.00
C4       0.51975    0.25230    0.25420   1.00
C4       0.47809    0.25166    0.25561   1.00
C3       0.54103    0.28473    0.23920   1.00
C3       0.45496    0.28484    0.24599   1.00
C3       0.54146    0.21950    0.26815   1.00
C3       0.45830    0.21675    0.26707   1.00
C2       0.60405    0.25445    0.25310   1.00
C2       0.39378    0.24981    0.25659   1.00
C3       0.58189    0.28592    0.23882   1.00
C3       0.41409    0.28397    0.24625   1.00
C3       0.58304    0.22197    0.26745   1.00
C3       0.41664    0.21700    0.26675   1.00
H1       0.52763    0.30854    0.22763   1.00
H1       0.46694    0.31102    0.23880   1.00
C5       0.52165    0.18536    0.28207   1.00
C5       0.48002    0.18291    0.27865   1.00
H1       0.59549    0.31022    0.22776   1.00
H1       0.39909    0.30884    0.23886   1.00
H1       0.59948    0.19934    0.27736   1.00
H1       0.40152    0.19266    0.27446   1.00
C6       0.54485    0.15262    0.30056   1.00
C6       0.45881    0.14498    0.28668   1.00
H2       0.56655    0.16507    0.32019   1.00
H2       0.43690    0.14037    0.26411   1.00
H2       0.52714    0.13556    0.32059   1.00
H2       0.47772    0.11986    0.28248   1.00
C6       0.56394    0.12451    0.26993   1.00
C6       0.44058    0.14304    0.32859   1.00
H2       0.57708    0.14165    0.24645   1.00
H2       0.42617    0.17071    0.33525   1.00
C6       0.59541    0.09505    0.28504   1.00
C6       0.41089    0.10939    0.33715   1.00
H2       0.54051    0.10790    0.25609   1.00
H2       0.46454    0.14080    0.34950   1.00
C6       0.63265    0.11632    0.29954   1.00
C6       0.37292    0.11401    0.31294   1.00
C6       0.57926    0.06896    0.31824   1.00
C6       0.42893    0.06875    0.32899   1.00
C6       0.60755    0.06807    0.25072   1.00
C6       0.39946    0.11106    0.38097   1.00
H2       0.64442    0.13549    0.27696   1.00
H2       0.35980    0.14269    0.31757   1.00
H2       0.62670    0.13402    0.32525   1.00
H2       0.37846    0.11072    0.28183   1.00
H2       0.65541    0.09551    0.30746   1.00
H2       0.35137    0.09203    0.32108   1.00
H2       0.60045    0.04671    0.32664   1.00
H2       0.40902    0.04545    0.33768   1.00
H2       0.57275    0.08622    0.34415   1.00
H2       0.43506    0.06502    0.29800   1.00
H2       0.55255    0.05427    0.30906   1.00
H2       0.45615    0.06506    0.34507   1.00
H2       0.61958    0.08505    0.22659   1.00
H2       0.38617    0.13910    0.38821   1.00
H2       0.62975    0.04708    0.25979   1.00
H2       0.37851    0.08822    0.38835   1.00
H2       0.58261    0.05162    0.23970   1.00
H2       0.42498    0.10717    0.39963   1.00
C4       0.98025    0.25230    0.24580   1.00
C4       1.02191    0.25166    0.24439   1.00
C3       0.95897    0.28473    0.26080   1.00
C3       1.04504    0.28484    0.25401   1.00
C3       0.95854    0.21950    0.23185   1.00
C3       1.04170    0.21675    0.23293   1.00
C2       0.89595    0.25445    0.24690   1.00
C2       1.10622    0.24981    0.24341   1.00
C3       0.91811    0.28592    0.26118   1.00
C3       1.08591    0.28397    0.25375   1.00
C3       0.91696    0.22197    0.23255   1.00
C3       1.08336    0.21700    0.23325   1.00
H1       0.97237    0.30854    0.27237   1.00
H1       1.03306    0.31102    0.26120   1.00
C5       0.97835    0.18536    0.21793   1.00
C5       1.01998    0.18291    0.22135   1.00
H1       0.90451    0.31022    0.27224   1.00
H1       1.10091    0.30884    0.26114   1.00
H1       0.90052    0.19934    0.22264   1.00
H1       1.09848    0.19266    0.22554   1.00
C6       0.95515    0.15262    0.19944   1.00
C6       1.04119    0.14498    0.21332   1.00
H2       0.93345    0.16507    0.17981   1.00
H2       1.06310    0.14037    0.23589   1.00
H2       0.97286    0.13556    0.17941   1.00
H2       1.02228    0.11986    0.21752   1.00
C6       0.93606    0.12451    0.23007   1.00
C6       1.05942    0.14304    0.17141   1.00
H2       0.92292    0.14165    0.25355   1.00
H2       1.07383    0.17071    0.16475   1.00
C6       0.90459    0.09505    0.21496   1.00
C6       1.08911    0.10939    0.16285   1.00
H2       0.95949    0.10790    0.24391   1.00
H2       1.03546    0.14080    0.15050   1.00
C6       0.86735    0.11632    0.20046   1.00
C6       1.12708    0.11401    0.18706   1.00
C6       0.92074    0.06896    0.18176   1.00
C6       1.07107    0.06875    0.17101   1.00
C6       0.89245    0.06807    0.24928   1.00
C6       1.10054    0.11106    0.11903   1.00
H2       0.85558    0.13549    0.22304   1.00
H2       1.14020    0.14269    0.18243   1.00
H2       0.87330    0.13402    0.17475   1.00
H2       1.12154    0.11072    0.21817   1.00
H2       0.84459    0.09551    0.19254   1.00
H2       1.14863    0.09203    0.17892   1.00
H2       0.89955    0.04671    0.17336   1.00
H2       1.09098    0.04545    0.16232   1.00
H2       0.92725    0.08622    0.15585   1.00
H2       1.06494    0.06502    0.20200   1.00
H2       0.94745    0.05427    0.19094   1.00
H2       1.04385    0.06506    0.15493   1.00
H2       0.88042    0.08505    0.27341   1.00
H2       1.11383    0.13910    0.11179   1.00
H2       0.87025    0.04708    0.24021   1.00
H2       1.12149    0.08822    0.11165   1.00
H2       0.91739    0.05162    0.26030   1.00
H2       1.07502    0.10717    0.10037   1.00
C4       0.75420    0.01975    0.25230   1.00
C4       0.75561    -0.02191   0.25166   1.00
C3       0.73920    0.04103    0.28473   1.00
C3       0.74599    -0.04504   0.28484   1.00
C3       0.76815    0.04146    0.21950   1.00
C3       0.76707    -0.04170   0.21675   1.00
C2       0.75310    0.10405    0.25445   1.00
C2       0.75659    -0.10622   0.24981   1.00
C3       0.73882    0.08189    0.28592   1.00
C3       0.74625    -0.08591   0.28397   1.00
C3       0.76745    0.08304    0.22197   1.00
C3       0.76675    -0.08336   0.21700   1.00
H1       0.72763    0.02763    0.30854   1.00
H1       0.73880    -0.03306   0.31102   1.00
C5       0.78207    0.02165    0.18536   1.00
C5       0.77865    -0.01998   0.18291   1.00
H1       0.72776    0.09549    0.31022   1.00
H1       0.73886    -0.10091   0.30884   1.00
H1       0.77736    0.09948    0.19934   1.00
H1       0.77446    -0.09848   0.19266   1.00
C6       0.80056    0.04485    0.15262   1.00
C6       0.78668    -0.04119   0.14498   1.00
H2       0.82019    0.06655    0.16507   1.00
H2       0.76411    -0.06310   0.14037   1.00
H2       0.82059    0.02714    0.13556   1.00
H2       0.78248    -0.02228   0.11986   1.00
C6       0.76993    0.06394    0.12451   1.00
C6       0.82859    -0.05942   0.14304   1.00
H2       0.74645    0.07708    0.14165   1.00
H2       0.83525    -0.07383   0.17071   1.00
C6       0.78504    0.09541    0.09505   1.00
C6       0.83715    -0.08911   0.10939   1.00
H2       0.75609    0.04051    0.10790   1.00
H2       0.84950    -0.03546   0.14080   1.00
C6       0.79954    0.13265    0.11632   1.00
C6       0.81294    -0.12708   0.11401   1.00
C6       0.81824    0.07926    0.06896   1.00
C6       0.82899    -0.07107   0.06875   1.00
C6       0.75072    0.10755    0.06807   1.00
C6       0.88097    -0.10054   0.11106   1.00
H2       0.77696    0.14442    0.13549   1.00
H2       0.81757    -0.14020   0.14269   1.00
H2       0.82525    0.12670    0.13402   1.00
H2       0.78183    -0.12154   0.11072   1.00
H2       0.80746    0.15541    0.09551   1.00
H2       0.82108    -0.14863   0.09203   1.00
H2       0.82664    0.10045    0.04671   1.00
H2       0.83768    -0.09098   0.04545   1.00
H2       0.84415    0.07275    0.08622   1.00
H2       0.79800    -0.06494   0.06502   1.00
H2       0.80906    0.05255    0.05427   1.00
H2       0.84507    -0.04385   0.06506   1.00
H2       0.72659    0.11958    0.08505   1.00
H2       0.88821    -0.11383   0.13910   1.00
H2       0.75979    0.12975    0.04708   1.00
H2       0.88835    -0.12149   0.08822   1.00
H2       0.73970    0.08261    0.05162   1.00
H2       0.89963    -0.07502   0.10717   1.00
C4       0.75230    0.25420    0.01975   1.00
C4       0.75166    0.25561    -0.02191   1.00
C3       0.78473    0.23920    0.04103   1.00
C3       0.78484    0.24599    -0.04504   1.00
C3       0.71950    0.26815    0.04146   1.00
C3       0.71675    0.26707    -0.04170   1.00
C2       0.75445    0.25310    0.10405   1.00
C2       0.74981    0.25659    -0.10622   1.00
C3       0.78592    0.23882    0.08189   1.00
C3       0.78397    0.24625    -0.08591   1.00
C3       0.72197    0.26745    0.08304   1.00
C3       0.71700    0.26675    -0.08336   1.00
H1       0.80854    0.22763    0.02763   1.00
H1       0.81102    0.23880    -0.03306   1.00
C5       0.68536    0.28207    0.02165   1.00
C5       0.68291    0.27865    -0.01998   1.00
H1       0.81022    0.22776    0.09549   1.00
H1       0.80884    0.23886    -0.10091   1.00
H1       0.69934    0.27736    0.09948   1.00
H1       0.69266    0.27446    -0.09848   1.00
C6       0.65262    0.30056    0.04485   1.00
C6       0.64498    0.28668    -0.04119   1.00
H2       0.66507    0.32019    0.06655   1.00
H2       0.64037    0.26411    -0.06310   1.00
H2       0.63556    0.32059    0.02714   1.00
H2       0.61986    0.28248    -0.02228   1.00
C6       0.62451    0.26993    0.06394   1.00
C6       0.64304    0.32859    -0.05942   1.00
H2       0.64165    0.24645    0.07708   1.00
H2       0.67071    0.33525    -0.07383   1.00
C6       0.59505    0.28504    0.09541   1.00
C6       0.60939    0.33715    -0.08911   1.00
H2       0.60790    0.25609    0.04051   1.00
H2       0.64080    0.34950    -0.03546   1.00
C6       0.61632    0.29954    0.13265   1.00
C6       0.61401    0.31294    -0.12708   1.00
C6       0.56896    0.31824    0.07926   1.00
C6       0.56875    0.32899    -0.07107   1.00
C6       0.56807    0.25072    0.10755   1.00
C6       0.61106    0.38097    -0.10054   1.00
H2       0.63549    0.27696    0.14442   1.00
H2       0.64269    0.31757    -0.14020   1.00
H2       0.63402    0.32525    0.12670   1.00
H2       0.61072    0.28183    -0.12154   1.00
H2       0.59551    0.30746    0.15541   1.00
H2       0.59203    0.32108    -0.14863   1.00
H2       0.54671    0.32664    0.10045   1.00
H2       0.54545    0.33768    -0.09098   1.00
H2       0.58622    0.34415    0.07275   1.00
H2       0.56502    0.29800    -0.06494   1.00
H2       0.55427    0.30906    0.05255   1.00
H2       0.56506    0.34507    -0.04385   1.00
H2       0.58505    0.22659    0.11958   1.00
H2       0.63910    0.38821    -0.11383   1.00
H2       0.54708    0.25979    0.12975   1.00
H2       0.58822    0.38835    -0.12149   1.00
H2       0.55162    0.23970    0.08261   1.00
H2       0.60717    0.39963    -0.07502   1.00
C4       0.91730    0.91080    1.14525   1.00
C4       0.91666    0.90939    1.18691   1.00
C3       0.94973    0.92580    1.12397   1.00
C3       0.94984    0.91901    1.21004   1.00
C3       0.88450    0.89685    1.12354   1.00
C3       0.88175    0.89793    1.20670   1.00
C2       0.91945    0.91190    1.06095   1.00
C2       0.91481    0.90841    1.27122   1.00
C3       0.95092    0.92618    1.08311   1.00
C3       0.94897    0.91875    1.25091   1.00
C3       0.88697    0.89755    1.08196   1.00
C3       0.88200    0.89825    1.24836   1.00
H1       0.97354    0.93737    1.13737   1.00
H1       0.97602    0.92620    1.19806   1.00
C5       0.85036    0.88293    1.14335   1.00
C5       0.84791    0.88635    1.18498   1.00
H1       0.97522    0.93724    1.06951   1.00
H1       0.97384    0.92614    1.26591   1.00
H1       0.86434    0.88764    1.06552   1.00
H1       0.85766    0.89054    1.26348   1.00
C6       0.81762    0.86444    1.12015   1.00
C6       0.80998    0.87832    1.20619   1.00
H2       0.83007    0.84481    1.09845   1.00
H2       0.80537    0.90089    1.22810   1.00
H2       0.80056    0.84441    1.13786   1.00
H2       0.78486    0.88252    1.18728   1.00
C6       0.78951    0.89507    1.10106   1.00
C6       0.80804    0.83641    1.22442   1.00
H2       0.80665    0.91855    1.08792   1.00
H2       0.83571    0.82975    1.23883   1.00
C6       0.76005    0.87996    1.06959   1.00
C6       0.77439    0.82785    1.25411   1.00
H2       0.77290    0.90891    1.12449   1.00
H2       0.80580    0.81550    1.20046   1.00
C6       0.78132    0.86546    1.03235   1.00
C6       0.77901    0.85206    1.29208   1.00
C6       0.73396    0.84676    1.08574   1.00
C6       0.73375    0.83601    1.23607   1.00
C6       0.73307    0.91428    1.05745   1.00
C6       0.77606    0.78403    1.26554   1.00
H2       0.80049    0.88804    1.02058   1.00
H2       0.80769    0.84743    1.30520   1.00
H2       0.79902    0.83975    1.03830   1.00
H2       0.77572    0.88317    1.28654   1.00
H2       0.76051    0.85754    1.00959   1.00
H2       0.75703    0.84392    1.31363   1.00
H2       0.71171    0.83836    1.06455   1.00
H2       0.71045    0.82732    1.25598   1.00
H2       0.75122    0.82085    1.09225   1.00
H2       0.73002    0.86700    1.22994   1.00
H2       0.71927    0.85594    1.11245   1.00
H2       0.73006    0.81993    1.20885   1.00
H2       0.75005    0.93841    1.04542   1.00
H2       0.80410    0.77679    1.27883   1.00
H2       0.71208    0.90521    1.03525   1.00
H2       0.75322    0.77665    1.28649   1.00
H2       0.71662    0.92530    1.08239   1.00
H2       0.77217    0.76537    1.24002   1.00
C4       0.91080    1.14525    0.91730   1.00
C4       0.90939    1.18691    0.91666   1.00
C3       0.92580    1.12397    0.94973   1.00
C3       0.91901    1.21004    0.94984   1.00
C3       0.89685    1.12354    0.88450   1.00
C3       0.89793    1.20670    0.88175   1.00
C2       0.91190    1.06095    0.91945   1.00
C2       0.90841    1.27122    0.91481   1.00
C3       0.92618    1.08311    0.95092   1.00
C3       0.91875    1.25091    0.94897   1.00
C3       0.89755    1.08196    0.88697   1.00
C3       0.89825    1.24836    0.88200   1.00
H1       0.93737    1.13737    0.97354   1.00
H1       0.92620    1.19806    0.97602   1.00
C5       0.88293    1.14335    0.85036   1.00
C5       0.88635    1.18498    0.84791   1.00
H1       0.93724    1.06951    0.97522   1.00
H1       0.92614    1.26591    0.97384   1.00
H1       0.88764    1.06552    0.86434   1.00
H1       0.89054    1.26348    0.85766   1.00
C6       0.86444    1.12015    0.81762   1.00
C6       0.87832    1.20619    0.80998   1.00
H2       0.84481    1.09845    0.83007   1.00
H2       0.90089    1.22810    0.80537   1.00
H2       0.84441    1.13786    0.80056   1.00
H2       0.88252    1.18728    0.78486   1.00
C6       0.89507    1.10106    0.78951   1.00
C6       0.83641    1.22442    0.80804   1.00
H2       0.91855    1.08792    0.80665   1.00
H2       0.82975    1.23883    0.83571   1.00
C6       0.87996    1.06959    0.76005   1.00
C6       0.82785    1.25411    0.77439   1.00
H2       0.90891    1.12449    0.77290   1.00
H2       0.81550    1.20046    0.80580   1.00
C6       0.86546    1.03235    0.78132   1.00
C6       0.85206    1.29208    0.77901   1.00
C6       0.84676    1.08574    0.73396   1.00
C6       0.83601    1.23607    0.73375   1.00
C6       0.91428    1.05745    0.73307   1.00
C6       0.78403    1.26554    0.77606   1.00
H2       0.88804    1.02058    0.80049   1.00
H2       0.84743    1.30520    0.80769   1.00
H2       0.83975    1.03830    0.79902   1.00
H2       0.88317    1.28654    0.77572   1.00
H2       0.85754    1.00959    0.76051   1.00
H2       0.84392    1.31363    0.75703   1.00
H2       0.83836    1.06455    0.71171   1.00
H2       0.82732    1.25598    0.71045   1.00
H2       0.82085    1.09225    0.75122   1.00
H2       0.86700    1.22994    0.73002   1.00
H2       0.85594    1.11245    0.71927   1.00
H2       0.81993    1.20885    0.73006   1.00
H2       0.93841    1.04542    0.75005   1.00
H2       0.77679    1.27883    0.80410   1.00
H2       0.90521    1.03525    0.71208   1.00
H2       0.77665    1.28649    0.75322   1.00
H2       0.92530    1.08239    0.71662   1.00
H2       0.76537    1.24002    0.77217   1.00
C4       0.68475    0.91730    0.91920   1.00
C4       0.64309    0.91666    0.92061   1.00
C3       0.70603    0.94973    0.90420   1.00
C3       0.61996    0.94984    0.91099   1.00
C3       0.70646    0.88450    0.93315   1.00
C3       0.62330    0.88175    0.93207   1.00
C2       0.76905    0.91945    0.91810   1.00
C2       0.55878    0.91481    0.92159   1.00
C3       0.74689    0.95092    0.90382   1.00
C3       0.57909    0.94897    0.91125   1.00
C3       0.74804    0.88697    0.93245   1.00
C3       0.58164    0.88200    0.93175   1.00
H1       0.69263    0.97354    0.89263   1.00
H1       0.63194    0.97602    0.90380   1.00
C5       0.68665    0.85036    0.94707   1.00
C5       0.64502    0.84791    0.94365   1.00
H1       0.76049    0.97522    0.89276   1.00
H1       0.56409    0.97384    0.90386   1.00
H1       0.76448    0.86434    0.94236   1.00
H1       0.56652    0.85766    0.93946   1.00
C6       0.70985    0.81762    0.96556   1.00
C6       0.62381    0.80998    0.95168   1.00
H2       0.73155    0.83007    0.98519   1.00
H2       0.60190    0.80537    0.92911   1.00
H2       0.69214    0.80056    0.98559   1.00
H2       0.64272    0.78486    0.94748   1.00
C6       0.72894    0.78951    0.93493   1.00
C6       0.60558    0.80804    0.99359   1.00
H2       0.74208    0.80665    0.91145   1.00
H2       0.59117    0.83571    1.00025   1.00
C6       0.76041    0.76005    0.95004   1.00
C6       0.57589    0.77439    1.00215   1.00
H2       0.70551    0.77290    0.92109   1.00
H2       0.62954    0.80580    1.01450   1.00
C6       0.79765    0.78132    0.96454   1.00
C6       0.53792    0.77901    0.97794   1.00
C6       0.74426    0.73396    0.98324   1.00
C6       0.59393    0.73375    0.99399   1.00
C6       0.77255    0.73307    0.91572   1.00
C6       0.56446    0.77606    1.04597   1.00
H2       0.80942    0.80049    0.94196   1.00
H2       0.52480    0.80769    0.98257   1.00
H2       0.79170    0.79902    0.99025   1.00
H2       0.54346    0.77572    0.94683   1.00
H2       0.82041    0.76051    0.97246   1.00
H2       0.51637    0.75703    0.98608   1.00
H2       0.76545    0.71171    0.99164   1.00
H2       0.57402    0.71045    1.00268   1.00
H2       0.73775    0.75122    1.00915   1.00
H2       0.60006    0.73002    0.96300   1.00
H2       0.71755    0.71927    0.97406   1.00
H2       0.62115    0.73006    1.01007   1.00
H2       0.78458    0.75005    0.89159   1.00
H2       0.55117    0.80410    1.05321   1.00
H2       0.79475    0.71208    0.92479   1.00
H2       0.54351    0.75322    1.05335   1.00
H2       0.74761    0.71662    0.90470   1.00
H2       0.58998    0.77217    1.06463   1.00
C4       1.14525    0.91730    0.91080   1.00
C4       1.18691    0.91666    0.90939   1.00
C3       1.12397    0.94973    0.92580   1.00
C3       1.21004    0.94984    0.91901   1.00
C3       1.12354    0.88450    0.89685   1.00
C3       1.20670    0.88175    0.89793   1.00
C2       1.06095    0.91945    0.91190   1.00
C2       1.27122    0.91481    0.90841   1.00
C3       1.08311    0.95092    0.92618   1.00
C3       1.25091    0.94897    0.91875   1.00
C3       1.08196    0.88697    0.89755   1.00
C3       1.24836    0.88200    0.89825   1.00
H1       1.13737    0.97354    0.93737   1.00
H1       1.19806    0.97602    0.92620   1.00
C5       1.14335    0.85036    0.88293   1.00
C5       1.18498    0.84791    0.88635   1.00
H1       1.06951    0.97522    0.93724   1.00
H1       1.26591    0.97384    0.92614   1.00
H1       1.06552    0.86434    0.88764   1.00
H1       1.26348    0.85766    0.89054   1.00
C6       1.12015    0.81762    0.86444   1.00
C6       1.20619    0.80998    0.87832   1.00
H2       1.09845    0.83007    0.84481   1.00
H2       1.22810    0.80537    0.90089   1.00
H2       1.13786    0.80056    0.84441   1.00
H2       1.18728    0.78486    0.88252   1.00
C6       1.10106    0.78951    0.89507   1.00
C6       1.22442    0.80804    0.83641   1.00
H2       1.08792    0.80665    0.91855   1.00
H2       1.23883    0.83571    0.82975   1.00
C6       1.06959    0.76005    0.87996   1.00
C6       1.25411    0.77439    0.82785   1.00
H2       1.12449    0.77290    0.90891   1.00
H2       1.20046    0.80580    0.81550   1.00
C6       1.03235    0.78132    0.86546   1.00
C6       1.29208    0.77901    0.85206   1.00
C6       1.08574    0.73396    0.84676   1.00
C6       1.23607    0.73375    0.83601   1.00
C6       1.05745    0.73307    0.91428   1.00
C6       1.26554    0.77606    0.78403   1.00
H2       1.02058    0.80049    0.88804   1.00
H2       1.30520    0.80769    0.84743   1.00
H2       1.03830    0.79902    0.83975   1.00
H2       1.28654    0.77572    0.88317   1.00
H2       1.00959    0.76051    0.85754   1.00
H2       1.31363    0.75703    0.84392   1.00
H2       1.06455    0.71171    0.83836   1.00
H2       1.25598    0.71045    0.82732   1.00
H2       1.09225    0.75122    0.82085   1.00
H2       1.22994    0.73002    0.86700   1.00
H2       1.11245    0.71927    0.85594   1.00
H2       1.20885    0.73006    0.81993   1.00
H2       1.04542    0.75005    0.93841   1.00
H2       1.27883    0.80410    0.77679   1.00
H2       1.03525    0.71208    0.90521   1.00
H2       1.28649    0.75322    0.77665   1.00
H2       1.08239    0.71662    0.92530   1.00
H2       1.24002    0.77217    0.76537   1.00
C4       0.91920    0.68475    0.91730   1.00
C4       0.92061    0.64309    0.91666   1.00
C3       0.90420    0.70603    0.94973   1.00
C3       0.91099    0.61996    0.94984   1.00
C3       0.93315    0.70646    0.88450   1.00
C3       0.93207    0.62330    0.88175   1.00
C2       0.91810    0.76905    0.91945   1.00
C2       0.92159    0.55878    0.91481   1.00
C3       0.90382    0.74689    0.95092   1.00
C3       0.91125    0.57909    0.94897   1.00
C3       0.93245    0.74804    0.88697   1.00
C3       0.93175    0.58164    0.88200   1.00
H1       0.89263    0.69263    0.97354   1.00
H1       0.90380    0.63194    0.97602   1.00
C5       0.94707    0.68665    0.85036   1.00
C5       0.94365    0.64502    0.84791   1.00
H1       0.89276    0.76049    0.97522   1.00
H1       0.90386    0.56409    0.97384   1.00
H1       0.94236    0.76448    0.86434   1.00
H1       0.93946    0.56652    0.85766   1.00
C6       0.96556    0.70985    0.81762   1.00
C6       0.95168    0.62381    0.80998   1.00
H2       0.98519    0.73155    0.83007   1.00
H2       0.92911    0.60190    0.80537   1.00
H2       0.98559    0.69214    0.80056   1.00
H2       0.94748    0.64272    0.78486   1.00
C6       0.93493    0.72894    0.78951   1.00
C6       0.99359    0.60558    0.80804   1.00
H2       0.91145    0.74208    0.80665   1.00
H2       1.00025    0.59117    0.83571   1.00
C6       0.95004    0.76041    0.76005   1.00
C6       1.00215    0.57589    0.77439   1.00
H2       0.92109    0.70551    0.77290   1.00
H2       1.01450    0.62954    0.80580   1.00
C6       0.96454    0.79765    0.78132   1.00
C6       0.97794    0.53792    0.77901   1.00
C6       0.98324    0.74426    0.73396   1.00
C6       0.99399    0.59393    0.73375   1.00
C6       0.91572    0.77255    0.73307   1.00
C6       1.04597    0.56446    0.77606   1.00
H2       0.94196    0.80942    0.80049   1.00
H2       0.98257    0.52480    0.80769   1.00
H2       0.99025    0.79170    0.79902   1.00
H2       0.94683    0.54346    0.77572   1.00
H2       0.97246    0.82041    0.76051   1.00
H2       0.98608    0.51637    0.75703   1.00
H2       0.99164    0.76545    0.71171   1.00
H2       1.00268    0.57402    0.71045   1.00
H2       1.00915    0.73775    0.75122   1.00
H2       0.96300    0.60006    0.73002   1.00
H2       0.97406    0.71755    0.71927   1.00
H2       1.01007    0.62115    0.73006   1.00
H2       0.89159    0.78458    0.75005   1.00
H2       1.05321    0.55117    0.80410   1.00
H2       0.92479    0.79475    0.71208   1.00
H2       1.05335    0.54351    0.75322   1.00
H2       0.90470    0.74761    0.71662   1.00
H2       1.06463    0.58998    0.77217   1.00
C4       0.91730    0.91920    0.68475   1.00
C4       0.91666    0.92061    0.64309   1.00
C3       0.94973    0.90420    0.70603   1.00
C3       0.94984    0.91099    0.61996   1.00
C3       0.88450    0.93315    0.70646   1.00
C3       0.88175    0.93207    0.62330   1.00
C2       0.91945    0.91810    0.76905   1.00
C2       0.91481    0.92159    0.55878   1.00
C3       0.95092    0.90382    0.74689   1.00
C3       0.94897    0.91125    0.57909   1.00
C3       0.88697    0.93245    0.74804   1.00
C3       0.88200    0.93175    0.58164   1.00
H1       0.97354    0.89263    0.69263   1.00
H1       0.97602    0.90380    0.63194   1.00
C5       0.85036    0.94707    0.68665   1.00
C5       0.84791    0.94365    0.64502   1.00
H1       0.97522    0.89276    0.76049   1.00
H1       0.97384    0.90386    0.56409   1.00
H1       0.86434    0.94236    0.76448   1.00
H1       0.85766    0.93946    0.56652   1.00
C6       0.81762    0.96556    0.70985   1.00
C6       0.80998    0.95168    0.62381   1.00
H2       0.83007    0.98519    0.73155   1.00
H2       0.80537    0.92911    0.60190   1.00
H2       0.80056    0.98559    0.69214   1.00
H2       0.78486    0.94748    0.64272   1.00
C6       0.78951    0.93493    0.72894   1.00
C6       0.80804    0.99359    0.60558   1.00
H2       0.80665    0.91145    0.74208   1.00
H2       0.83571    1.00025    0.59117   1.00
C6       0.76005    0.95004    0.76041   1.00
C6       0.77439    1.00215    0.57589   1.00
H2       0.77290    0.92109    0.70551   1.00
H2       0.80580    1.01450    0.62954   1.00
C6       0.78132    0.96454    0.79765   1.00
C6       0.77901    0.97794    0.53792   1.00
C6       0.73396    0.98324    0.74426   1.00
C6       0.73375    0.99399    0.59393   1.00
C6       0.73307    0.91572    0.77255   1.00
C6       0.77606    1.04597    0.56446   1.00
H2       0.80049    0.94196    0.80942   1.00
H2       0.80769    0.98257    0.52480   1.00
H2       0.79902    0.99025    0.79170   1.00
H2       0.77572    0.94683    0.54346   1.00
H2       0.76051    0.97246    0.82041   1.00
H2       0.75703    0.98608    0.51637   1.00
H2       0.71171    0.99164    0.76545   1.00
H2       0.71045    1.00268    0.57402   1.00
H2       0.75122    1.00915    0.73775   1.00
H2       0.73002    0.96300    0.60006   1.00
H2       0.71927    0.97406    0.71755   1.00
H2       0.73006    1.01007    0.62115   1.00
H2       0.75005    0.89159    0.78458   1.00
H2       0.80410    1.05321    0.55117   1.00
H2       0.71208    0.92479    0.79475   1.00
H2       0.75322    1.05335    0.54351   1.00
H2       0.71662    0.90470    0.74761   1.00
H2       0.77217    1.06463    0.58998   1.00
C4       0.41730    0.41080    1.14525   1.00
C4       0.41666    0.40939    1.18691   1.00
C3       0.44973    0.42580    1.12397   1.00
C3       0.44984    0.41901    1.21004   1.00
C3       0.38450    0.39685    1.12354   1.00
C3       0.38175    0.39793    1.20670   1.00
C2       0.41945    0.41190    1.06095   1.00
C2       0.41481    0.40841    1.27122   1.00
C3       0.45092    0.42618    1.08311   1.00
C3       0.44897    0.41875    1.25091   1.00
C3       0.38697    0.39755    1.08196   1.00
C3       0.38200    0.39825    1.24836   1.00
H1       0.47354    0.43737    1.13737   1.00
H1       0.47602    0.42620    1.19806   1.00
C5       0.35036    0.38293    1.14335   1.00
C5       0.34791    0.38635    1.18498   1.00
H1       0.47522    0.43724    1.06951   1.00
H1       0.47384    0.42614    1.26591   1.00
H1       0.36434    0.38764    1.06552   1.00
H1       0.35766    0.39054    1.26348   1.00
C6       0.31762    0.36444    1.12015   1.00
C6       0.30998    0.37832    1.20619   1.00
H2       0.33007    0.34481    1.09845   1.00
H2       0.30537    0.40089    1.22810   1.00
H2       0.30056    0.34441    1.13786   1.00
H2       0.28486    0.38252    1.18728   1.00
C6       0.28951    0.39507    1.10106   1.00
C6       0.30804    0.33641    1.22442   1.00
H2       0.30665    0.41855    1.08792   1.00
H2       0.33571    0.32975    1.23883   1.00
C6       0.26005    0.37996    1.06959   1.00
C6       0.27439    0.32785    1.25411   1.00
H2       0.27290    0.40891    1.12449   1.00
H2       0.30580    0.31550    1.20046   1.00
C6       0.28132    0.36546    1.03235   1.00
C6       0.27901    0.35206    1.29208   1.00
C6       0.23396    0.34676    1.08574   1.00
C6       0.23375    0.33601    1.23607   1.00
C6       0.23307    0.41428    1.05745   1.00
C6       0.27606    0.28403    1.26554   1.00
H2       0.30049    0.38804    1.02058   1.00
H2       0.30769    0.34743    1.30520   1.00
H2       0.29902    0.33975    1.03830   1.00
H2       0.27572    0.38317    1.28654   1.00
H2       0.26051    0.35754    1.00959   1.00
H2       0.25703    0.34392    1.31363   1.00
H2       0.21171    0.33836    1.06455   1.00
H2       0.21045    0.32732    1.25598   1.00
H2       0.25122    0.32085    1.09225   1.00
H2       0.23002    0.36700    1.22994   1.00
H2       0.21927    0.35594    1.11245   1.00
H2       0.23006    0.31993    1.20885   1.00
H2       0.25005    0.43841    1.04542   1.00
H2       0.30410    0.27679    1.27883   1.00
H2       0.21208    0.40521    1.03525   1.00
H2       0.25322    0.27665    1.28649   1.00
H2       0.21662    0.42530    1.08239   1.00
H2       0.27217    0.26537    1.24002   1.00
C4       0.41080    0.64525    0.91730   1.00
C4       0.40939    0.68691    0.91666   1.00
C3       0.42580    0.62397    0.94973   1.00
C3       0.41901    0.71004    0.94984   1.00
C3       0.39685    0.62354    0.88450   1.00
C3       0.39793    0.70670    0.88175   1.00
C2       0.41190    0.56095    0.91945   1.00
C2       0.40841    0.77122    0.91481   1.00
C3       0.42618    0.58311    0.95092   1.00
C3       0.41875    0.75091    0.94897   1.00
C3       0.39755    0.58196    0.88697   1.00
C3       0.39825    0.74836    0.88200   1.00
H1       0.43737    0.63737    0.97354   1.00
H1       0.42620    0.69806    0.97602   1.00
C5       0.38293    0.64335    0.85036   1.00
C5       0.38635    0.68498    0.84791   1.00
H1       0.43724    0.56951    0.97522   1.00
H1       0.42614    0.76591    0.97384   1.00
H1       0.38764    0.56552    0.86434   1.00
H1       0.39054    0.76348    0.85766   1.00
C6       0.36444    0.62015    0.81762   1.00
C6       0.37832    0.70619    0.80998   1.00
H2       0.34481    0.59845    0.83007   1.00
H2       0.40089    0.72810    0.80537   1.00
H2       0.34441    0.63786    0.80056   1.00
H2       0.38252    0.68728    0.78486   1.00
C6       0.39507    0.60106    0.78951   1.00
C6       0.33641    0.72442    0.80804   1.00
H2       0.41855    0.58792    0.80665   1.00
H2       0.32975    0.73883    0.83571   1.00
C6       0.37996    0.56959    0.76005   1.00
C6       0.32785    0.75411    0.77439   1.00
H2       0.40891    0.62449    0.77290   1.00
H2       0.31550    0.70046    0.80580   1.00
C6       0.36546    0.53235    0.78132   1.00
C6       0.35206    0.79208    0.77901   1.00
C6       0.34676    0.58574    0.73396   1.00
C6       0.33601    0.73607    0.73375   1.00
C6       0.41428    0.55745    0.73307   1.00
C6       0.28403    0.76554    0.77606   1.00
H2       0.38804    0.52058    0.80049   1.00
H2       0.34743    0.80520    0.80769   1.00
H2       0.33975    0.53830    0.79902   1.00
H2       0.38317    0.78654    0.77572   1.00
H2       0.35754    0.50959    0.76051   1.00
H2       0.34392    0.81363    0.75703   1.00
H2       0.33836    0.56455    0.71171   1.00
H2       0.32732    0.75598    0.71045   1.00
H2       0.32085    0.59225    0.75122   1.00
H2       0.36700    0.72994    0.73002   1.00
H2       0.35594    0.61245    0.71927   1.00
H2       0.31993    0.70885    0.73006   1.00
H2       0.43841    0.54542    0.75005   1.00
H2       0.27679    0.77883    0.80410   1.00
H2       0.40521    0.53525    0.71208   1.00
H2       0.27665    0.78649    0.75322   1.00
H2       0.42530    0.58239    0.71662   1.00
H2       0.26537    0.74002    0.77217   1.00
C4       0.18475    0.41730    0.91920   1.00
C4       0.14309    0.41666    0.92061   1.00
C3       0.20603    0.44973    0.90420   1.00
C3       0.11996    0.44984    0.91099   1.00
C3       0.20646    0.38450    0.93315   1.00
C3       0.12330    0.38175    0.93207   1.00
C2       0.26905    0.41945    0.91810   1.00
C2       0.05878    0.41481    0.92159   1.00
C3       0.24689    0.45092    0.90382   1.00
C3       0.07909    0.44897    0.91125   1.00
C3       0.24804    0.38697    0.93245   1.00
C3       0.08164    0.38200    0.93175   1.00
H1       0.19263    0.47354    0.89263   1.00
H1       0.13194    0.47602    0.90380   1.00
C5       0.18665    0.35036    0.94707   1.00
C5       0.14502    0.34791    0.94365   1.00
H1       0.26049    0.47522    0.89276   1.00
H1       0.06409    0.47384    0.90386   1.00
H1       0.26448    0.36434    0.94236   1.00
H1       0.06652    0.35766    0.93946   1.00
C6       0.20985    0.31762    0.96556   1.00
C6       0.12381    0.30998    0.95168   1.00
H2       0.23155    0.33007    0.98519   1.00
H2       0.10190    0.30537    0.92911   1.00
H2       0.19214    0.30056    0.98559   1.00
H2       0.14272    0.28486    0.94748   1.00
C6       0.22894    0.28951    0.93493   1.00
C6       0.10558    0.30804    0.99359   1.00
H2       0.24208    0.30665    0.91145   1.00
H2       0.09117    0.33571    1.00025   1.00
C6       0.26041    0.26005    0.95004   1.00
C6       0.07589    0.27439    1.00215   1.00
H2       0.20551    0.27290    0.92109   1.00
H2       0.12954    0.30580    1.01450   1.00
C6       0.29765    0.28132    0.96454   1.00
C6       0.03792    0.27901    0.97794   1.00
C6       0.24426    0.23396    0.98324   1.00
C6       0.09393    0.23375    0.99399   1.00
C6       0.27255    0.23307    0.91572   1.00
C6       0.06446    0.27606    1.04597   1.00
H2       0.30942    0.30049    0.94196   1.00
H2       0.02480    0.30769    0.98257   1.00
H2       0.29170    0.29902    0.99025   1.00
H2       0.04346    0.27572    0.94683   1.00
H2       0.32041    0.26051    0.97246   1.00
H2       0.01637    0.25703    0.98608   1.00
H2       0.26545    0.21171    0.99164   1.00
H2       0.07402    0.21045    1.00268   1.00
H2       0.23775    0.25122    1.00915   1.00
H2       0.10006    0.23002    0.96300   1.00
H2       0.21755    0.21927    0.97406   1.00
H2       0.12115    0.23006    1.01007   1.00
H2       0.28458    0.25005    0.89159   1.00
H2       0.05117    0.30410    1.05321   1.00
H2       0.29475    0.21208    0.92479   1.00
H2       0.04351    0.25322    1.05335   1.00
H2       0.24761    0.21662    0.90470   1.00
H2       0.08998    0.27217    1.06463   1.00
C4       0.64525    0.41730    0.91080   1.00
C4       0.68691    0.41666    0.90939   1.00
C3       0.62397    0.44973    0.92580   1.00
C3       0.71004    0.44984    0.91901   1.00
C3       0.62354    0.38450    0.89685   1.00
C3       0.70670    0.38175    0.89793   1.00
C2       0.56095    0.41945    0.91190   1.00
C2       0.77122    0.41481    0.90841   1.00
C3       0.58311    0.45092    0.92618   1.00
C3       0.75091    0.44897    0.91875   1.00
C3       0.58196    0.38697    0.89755   1.00
C3       0.74836    0.38200    0.89825   1.00
H1       0.63737    0.47354    0.93737   1.00
H1       0.69806    0.47602    0.92620   1.00
C5       0.64335    0.35036    0.88293   1.00
C5       0.68498    0.34791    0.88635   1.00
H1       0.56951    0.47522    0.93724   1.00
H1       0.76591    0.47384    0.92614   1.00
H1       0.56552    0.36434    0.88764   1.00
H1       0.76348    0.35766    0.89054   1.00
C6       0.62015    0.31762    0.86444   1.00
C6       0.70619    0.30998    0.87832   1.00
H2       0.59845    0.33007    0.84481   1.00
H2       0.72810    0.30537    0.90089   1.00
H2       0.63786    0.30056    0.84441   1.00
H2       0.68728    0.28486    0.88252   1.00
C6       0.60106    0.28951    0.89507   1.00
C6       0.72442    0.30804    0.83641   1.00
H2       0.58792    0.30665    0.91855   1.00
H2       0.73883    0.33571    0.82975   1.00
C6       0.56959    0.26005    0.87996   1.00
C6       0.75411    0.27439    0.82785   1.00
H2       0.62449    0.27290    0.90891   1.00
H2       0.70046    0.30580    0.81550   1.00
C6       0.53235    0.28132    0.86546   1.00
C6       0.79208    0.27901    0.85206   1.00
C6       0.58574    0.23396    0.84676   1.00
C6       0.73607    0.23375    0.83601   1.00
C6       0.55745    0.23307    0.91428   1.00
C6       0.76554    0.27606    0.78403   1.00
H2       0.52058    0.30049    0.88804   1.00
H2       0.80520    0.30769    0.84743   1.00
H2       0.53830    0.29902    0.83975   1.00
H2       0.78654    0.27572    0.88317   1.00
H2       0.50959    0.26051    0.85754   1.00
H2       0.81363    0.25703    0.84392   1.00
H2       0.56455    0.21171    0.83836   1.00
H2       0.75598    0.21045    0.82732   1.00
H2       0.59225    0.25122    0.82085   1.00
H2       0.72994    0.23002    0.86700   1.00
H2       0.61245    0.21927    0.85594   1.00
H2       0.70885    0.23006    0.81993   1.00
H2       0.54542    0.25005    0.93841   1.00
H2       0.77883    0.30410    0.77679   1.00
H2       0.53525    0.21208    0.90521   1.00
H2       0.78649    0.25322    0.77665   1.00
H2       0.58239    0.21662    0.92530   1.00
H2       0.74002    0.27217    0.76537   1.00
C4       0.41920    0.18475    0.91730   1.00
C4       0.42061    0.14309    0.91666   1.00
C3       0.40420    0.20603    0.94973   1.00
C3       0.41099    0.11996    0.94984   1.00
C3       0.43315    0.20646    0.88450   1.00
C3       0.43207    0.12330    0.88175   1.00
C2       0.41810    0.26905    0.91945   1.00
C2       0.42159    0.05878    0.91481   1.00
C3       0.40382    0.24689    0.95092   1.00
C3       0.41125    0.07909    0.94897   1.00
C3       0.43245    0.24804    0.88697   1.00
C3       0.43175    0.08164    0.88200   1.00
H1       0.39263    0.19263    0.97354   1.00
H1       0.40380    0.13194    0.97602   1.00
C5       0.44707    0.18665    0.85036   1.00
C5       0.44365    0.14502    0.84791   1.00
H1       0.39276    0.26049    0.97522   1.00
H1       0.40386    0.06409    0.97384   1.00
H1       0.44236    0.26448    0.86434   1.00
H1       0.43946    0.06652    0.85766   1.00
C6       0.46556    0.20985    0.81762   1.00
C6       0.45168    0.12381    0.80998   1.00
H2       0.48519    0.23155    0.83007   1.00
H2       0.42911    0.10190    0.80537   1.00
H2       0.48559    0.19214    0.80056   1.00
H2       0.44748    0.14272    0.78486   1.00
C6       0.43493    0.22894    0.78951   1.00
C6       0.49359    0.10558    0.80804   1.00
H2       0.41145    0.24208    0.80665   1.00
H2       0.50025    0.09117    0.83571   1.00
C6       0.45004    0.26041    0.76005   1.00
C6       0.50215    0.07589    0.77439   1.00
H2       0.42109    0.20551    0.77290   1.00
H2       0.51450    0.12954    0.80580   1.00
C6       0.46454    0.29765    0.78132   1.00
C6       0.47794    0.03792    0.77901   1.00
C6       0.48324    0.24426    0.73396   1.00
C6       0.49399    0.09393    0.73375   1.00
C6       0.41572    0.27255    0.73307   1.00
C6       0.54597    0.06446    0.77606   1.00
H2       0.44196    0.30942    0.80049   1.00
H2       0.48257    0.02480    0.80769   1.00
H2       0.49025    0.29170    0.79902   1.00
H2       0.44683    0.04346    0.77572   1.00
H2       0.47246    0.32041    0.76051   1.00
H2       0.48608    0.01637    0.75703   1.00
H2       0.49164    0.26545    0.71171   1.00
H2       0.50268    0.07402    0.71045   1.00
H2       0.50915    0.23775    0.75122   1.00
H2       0.46300    0.10006    0.73002   1.00
H2       0.47406    0.21755    0.71927   1.00
H2       0.51007    0.12115    0.73006   1.00
H2       0.39159    0.28458    0.75005   1.00
H2       0.55321    0.05117    0.80410   1.00
H2       0.42479    0.29475    0.71208   1.00
H2       0.55335    0.04351    0.75322   1.00
H2       0.40470    0.24761    0.71662   1.00
H2       0.56463    0.08998    0.77217   1.00
C4       0.41730    0.41920    0.68475   1.00
C4       0.41666    0.42061    0.64309   1.00
C3       0.44973    0.40420    0.70603   1.00
C3       0.44984    0.41099    0.61996   1.00
C3       0.38450    0.43315    0.70646   1.00
C3       0.38175    0.43207    0.62330   1.00
C2       0.41945    0.41810    0.76905   1.00
C2       0.41481    0.42159    0.55878   1.00
C3       0.45092    0.40382    0.74689   1.00
C3       0.44897    0.41125    0.57909   1.00
C3       0.38697    0.43245    0.74804   1.00
C3       0.38200    0.43175    0.58164   1.00
H1       0.47354    0.39263    0.69263   1.00
H1       0.47602    0.40380    0.63194   1.00
C5       0.35036    0.44707    0.68665   1.00
C5       0.34791    0.44365    0.64502   1.00
H1       0.47522    0.39276    0.76049   1.00
H1       0.47384    0.40386    0.56409   1.00
H1       0.36434    0.44236    0.76448   1.00
H1       0.35766    0.43946    0.56652   1.00
C6       0.31762    0.46556    0.70985   1.00
C6       0.30998    0.45168    0.62381   1.00
H2       0.33007    0.48519    0.73155   1.00
H2       0.30537    0.42911    0.60190   1.00
H2       0.30056    0.48559    0.69214   1.00
H2       0.28486    0.44748    0.64272   1.00
C6       0.28951    0.43493    0.72894   1.00
C6       0.30804    0.49359    0.60558   1.00
H2       0.30665    0.41145    0.74208   1.00
H2       0.33571    0.50025    0.59117   1.00
C6       0.26005    0.45004    0.76041   1.00
C6       0.27439    0.50215    0.57589   1.00
H2       0.27290    0.42109    0.70551   1.00
H2       0.30580    0.51450    0.62954   1.00
C6       0.28132    0.46454    0.79765   1.00
C6       0.27901    0.47794    0.53792   1.00
C6       0.23396    0.48324    0.74426   1.00
C6       0.23375    0.49399    0.59393   1.00
C6       0.23307    0.41572    0.77255   1.00
C6       0.27606    0.54597    0.56446   1.00
H2       0.30049    0.44196    0.80942   1.00
H2       0.30769    0.48257    0.52480   1.00
H2       0.29902    0.49025    0.79170   1.00
H2       0.27572    0.44683    0.54346   1.00
H2       0.26051    0.47246    0.82041   1.00
H2       0.25703    0.48608    0.51637   1.00
H2       0.21171    0.49164    0.76545   1.00
H2       0.21045    0.50268    0.57402   1.00
H2       0.25122    0.50915    0.73775   1.00
H2       0.23002    0.46300    0.60006   1.00
H2       0.21927    0.47406    0.71755   1.00
H2       0.23006    0.51007    0.62115   1.00
H2       0.25005    0.39159    0.78458   1.00
H2       0.30410    0.55321    0.55117   1.00
H2       0.21208    0.42479    0.79475   1.00
H2       0.25322    0.55335    0.54351   1.00
H2       0.21662    0.40470    0.74761   1.00
H2       0.27217    0.56463    0.58998   1.00
C4       0.41730    0.91080    0.64525   1.00
C4       0.41666    0.90939    0.68691   1.00
C3       0.44973    0.92580    0.62397   1.00
C3       0.44984    0.91901    0.71004   1.00
C3       0.38450    0.89685    0.62354   1.00
C3       0.38175    0.89793    0.70670   1.00
C2       0.41945    0.91190    0.56095   1.00
C2       0.41481    0.90841    0.77122   1.00
C3       0.45092    0.92618    0.58311   1.00
C3       0.44897    0.91875    0.75091   1.00
C3       0.38697    0.89755    0.58196   1.00
C3       0.38200    0.89825    0.74836   1.00
H1       0.47354    0.93737    0.63737   1.00
H1       0.47602    0.92620    0.69806   1.00
C5       0.35036    0.88293    0.64335   1.00
C5       0.34791    0.88635    0.68498   1.00
H1       0.47522    0.93724    0.56951   1.00
H1       0.47384    0.92614    0.76591   1.00
H1       0.36434    0.88764    0.56552   1.00
H1       0.35766    0.89054    0.76348   1.00
C6       0.31762    0.86444    0.62015   1.00
C6       0.30998    0.87832    0.70619   1.00
H2       0.33007    0.84481    0.59845   1.00
H2       0.30537    0.90089    0.72810   1.00
H2       0.30056    0.84441    0.63786   1.00
H2       0.28486    0.88252    0.68728   1.00
C6       0.28951    0.89507    0.60106   1.00
C6       0.30804    0.83641    0.72442   1.00
H2       0.30665    0.91855    0.58792   1.00
H2       0.33571    0.82975    0.73883   1.00
C6       0.26005    0.87996    0.56959   1.00
C6       0.27439    0.82785    0.75411   1.00
H2       0.27290    0.90891    0.62449   1.00
H2       0.30580    0.81550    0.70046   1.00
C6       0.28132    0.86546    0.53235   1.00
C6       0.27901    0.85206    0.79208   1.00
C6       0.23396    0.84676    0.58574   1.00
C6       0.23375    0.83601    0.73607   1.00
C6       0.23307    0.91428    0.55745   1.00
C6       0.27606    0.78403    0.76554   1.00
H2       0.30049    0.88804    0.52058   1.00
H2       0.30769    0.84743    0.80520   1.00
H2       0.29902    0.83975    0.53830   1.00
H2       0.27572    0.88317    0.78654   1.00
H2       0.26051    0.85754    0.50959   1.00
H2       0.25703    0.84392    0.81363   1.00
H2       0.21171    0.83836    0.56455   1.00
H2       0.21045    0.82732    0.75598   1.00
H2       0.25122    0.82085    0.59225   1.00
H2       0.23002    0.86700    0.72994   1.00
H2       0.21927    0.85594    0.61245   1.00
H2       0.23006    0.81993    0.70885   1.00
H2       0.25005    0.93841    0.54542   1.00
H2       0.30410    0.77679    0.77883   1.00
H2       0.21208    0.90521    0.53525   1.00
H2       0.25322    0.77665    0.78649   1.00
H2       0.21662    0.92530    0.58239   1.00
H2       0.27217    0.76537    0.74002   1.00
C4       0.41080    1.14525    0.41730   1.00
C4       0.40939    1.18691    0.41666   1.00
C3       0.42580    1.12397    0.44973   1.00
C3       0.41901    1.21004    0.44984   1.00
C3       0.39685    1.12354    0.38450   1.00
C3       0.39793    1.20670    0.38175   1.00
C2       0.41190    1.06095    0.41945   1.00
C2       0.40841    1.27122    0.41481   1.00
C3       0.42618    1.08311    0.45092   1.00
C3       0.41875    1.25091    0.44897   1.00
C3       0.39755    1.08196    0.38697   1.00
C3       0.39825    1.24836    0.38200   1.00
H1       0.43737    1.13737    0.47354   1.00
H1       0.42620    1.19806    0.47602   1.00
C5       0.38293    1.14335    0.35036   1.00
C5       0.38635    1.18498    0.34791   1.00
H1       0.43724    1.06951    0.47522   1.00
H1       0.42614    1.26591    0.47384   1.00
H1       0.38764    1.06552    0.36434   1.00
H1       0.39054    1.26348    0.35766   1.00
C6       0.36444    1.12015    0.31762   1.00
C6       0.37832    1.20619    0.30998   1.00
H2       0.34481    1.09845    0.33007   1.00
H2       0.40089    1.22810    0.30537   1.00
H2       0.34441    1.13786    0.30056   1.00
H2       0.38252    1.18728    0.28486   1.00
C6       0.39507    1.10106    0.28951   1.00
C6       0.33641    1.22442    0.30804   1.00
H2       0.41855    1.08792    0.30665   1.00
H2       0.32975    1.23883    0.33571   1.00
C6       0.37996    1.06959    0.26005   1.00
C6       0.32785    1.25411    0.27439   1.00
H2       0.40891    1.12449    0.27290   1.00
H2       0.31550    1.20046    0.30580   1.00
C6       0.36546    1.03235    0.28132   1.00
C6       0.35206    1.29208    0.27901   1.00
C6       0.34676    1.08574    0.23396   1.00
C6       0.33601    1.23607    0.23375   1.00
C6       0.41428    1.05745    0.23307   1.00
C6       0.28403    1.26554    0.27606   1.00
H2       0.38804    1.02058    0.30049   1.00
H2       0.34743    1.30520    0.30769   1.00
H2       0.33975    1.03830    0.29902   1.00
H2       0.38317    1.28654    0.27572   1.00
H2       0.35754    1.00959    0.26051   1.00
H2       0.34392    1.31363    0.25703   1.00
H2       0.33836    1.06455    0.21171   1.00
H2       0.32732    1.25598    0.21045   1.00
H2       0.32085    1.09225    0.25122   1.00
H2       0.36700    1.22994    0.23002   1.00
H2       0.35594    1.11245    0.21927   1.00
H2       0.31993    1.20885    0.23006   1.00
H2       0.43841    1.04542    0.25005   1.00
H2       0.27679    1.27883    0.30410   1.00
H2       0.40521    1.03525    0.21208   1.00
H2       0.27665    1.28649    0.25322   1.00
H2       0.42530    1.08239    0.21662   1.00
H2       0.26537    1.24002    0.27217   1.00
C4       0.18475    0.91730    0.41920   1.00
C4       0.14309    0.91666    0.42061   1.00
C3       0.20603    0.94973    0.40420   1.00
C3       0.11996    0.94984    0.41099   1.00
C3       0.20646    0.88450    0.43315   1.00
C3       0.12330    0.88175    0.43207   1.00
C2       0.26905    0.91945    0.41810   1.00
C2       0.05878    0.91481    0.42159   1.00
C3       0.24689    0.95092    0.40382   1.00
C3       0.07909    0.94897    0.41125   1.00
C3       0.24804    0.88697    0.43245   1.00
C3       0.08164    0.88200    0.43175   1.00
H1       0.19263    0.97354    0.39263   1.00
H1       0.13194    0.97602    0.40380   1.00
C5       0.18665    0.85036    0.44707   1.00
C5       0.14502    0.84791    0.44365   1.00
H1       0.26049    0.97522    0.39276   1.00
H1       0.06409    0.97384    0.40386   1.00
H1       0.26448    0.86434    0.44236   1.00
H1       0.06652    0.85766    0.43946   1.00
C6       0.20985    0.81762    0.46556   1.00
C6       0.12381    0.80998    0.45168   1.00
H2       0.23155    0.83007    0.48519   1.00
H2       0.10190    0.80537    0.42911   1.00
H2       0.19214    0.80056    0.48559   1.00
H2       0.14272    0.78486    0.44748   1.00
C6       0.22894    0.78951    0.43493   1.00
C6       0.10558    0.80804    0.49359   1.00
H2       0.24208    0.80665    0.41145   1.00
H2       0.09117    0.83571    0.50025   1.00
C6       0.26041    0.76005    0.45004   1.00
C6       0.07589    0.77439    0.50215   1.00
H2       0.20551    0.77290    0.42109   1.00
H2       0.12954    0.80580    0.51450   1.00
C6       0.29765    0.78132    0.46454   1.00
C6       0.03792    0.77901    0.47794   1.00
C6       0.24426    0.73396    0.48324   1.00
C6       0.09393    0.73375    0.49399   1.00
C6       0.27255    0.73307    0.41572   1.00
C6       0.06446    0.77606    0.54597   1.00
H2       0.30942    0.80049    0.44196   1.00
H2       0.02480    0.80769    0.48257   1.00
H2       0.29170    0.79902    0.49025   1.00
H2       0.04346    0.77572    0.44683   1.00
H2       0.32041    0.76051    0.47246   1.00
H2       0.01637    0.75703    0.48608   1.00
H2       0.26545    0.71171    0.49164   1.00
H2       0.07402    0.71045    0.50268   1.00
H2       0.23775    0.75122    0.50915   1.00
H2       0.10006    0.73002    0.46300   1.00
H2       0.21755    0.71927    0.47406   1.00
H2       0.12115    0.73006    0.51007   1.00
H2       0.28458    0.75005    0.39159   1.00
H2       0.05117    0.80410    0.55321   1.00
H2       0.29475    0.71208    0.42479   1.00
H2       0.04351    0.75322    0.55335   1.00
H2       0.24761    0.71662    0.40470   1.00
H2       0.08998    0.77217    0.56463   1.00
C4       0.64525    0.91730    0.41080   1.00
C4       0.68691    0.91666    0.40939   1.00
C3       0.62397    0.94973    0.42580   1.00
C3       0.71004    0.94984    0.41901   1.00
C3       0.62354    0.88450    0.39685   1.00
C3       0.70670    0.88175    0.39793   1.00
C2       0.56095    0.91945    0.41190   1.00
C2       0.77122    0.91481    0.40841   1.00
C3       0.58311    0.95092    0.42618   1.00
C3       0.75091    0.94897    0.41875   1.00
C3       0.58196    0.88697    0.39755   1.00
C3       0.74836    0.88200    0.39825   1.00
H1       0.63737    0.97354    0.43737   1.00
H1       0.69806    0.97602    0.42620   1.00
C5       0.64335    0.85036    0.38293   1.00
C5       0.68498    0.84791    0.38635   1.00
H1       0.56951    0.97522    0.43724   1.00
H1       0.76591    0.97384    0.42614   1.00
H1       0.56552    0.86434    0.38764   1.00
H1       0.76348    0.85766    0.39054   1.00
C6       0.62015    0.81762    0.36444   1.00
C6       0.70619    0.80998    0.37832   1.00
H2       0.59845    0.83007    0.34481   1.00
H2       0.72810    0.80537    0.40089   1.00
H2       0.63786    0.80056    0.34441   1.00
H2       0.68728    0.78486    0.38252   1.00
C6       0.60106    0.78951    0.39507   1.00
C6       0.72442    0.80804    0.33641   1.00
H2       0.58792    0.80665    0.41855   1.00
H2       0.73883    0.83571    0.32975   1.00
C6       0.56959    0.76005    0.37996   1.00
C6       0.75411    0.77439    0.32785   1.00
H2       0.62449    0.77290    0.40891   1.00
H2       0.70046    0.80580    0.31550   1.00
C6       0.53235    0.78132    0.36546   1.00
C6       0.79208    0.77901    0.35206   1.00
C6       0.58574    0.73396    0.34676   1.00
C6       0.73607    0.73375    0.33601   1.00
C6       0.55745    0.73307    0.41428   1.00
C6       0.76554    0.77606    0.28403   1.00
H2       0.52058    0.80049    0.38804   1.00
H2       0.80520    0.80769    0.34743   1.00
H2       0.53830    0.79902    0.33975   1.00
H2       0.78654    0.77572    0.38317   1.00
H2       0.50959    0.76051    0.35754   1.00
H2       0.81363    0.75703    0.34392   1.00
H2       0.56455    0.71171    0.33836   1.00
H2       0.75598    0.71045    0.32732   1.00
H2       0.59225    0.75122    0.32085   1.00
H2       0.72994    0.73002    0.36700   1.00
H2       0.61245    0.71927    0.35594   1.00
H2       0.70885    0.73006    0.31993   1.00
H2       0.54542    0.75005    0.43841   1.00
H2       0.77883    0.80410    0.27679   1.00
H2       0.53525    0.71208    0.40521   1.00
H2       0.78649    0.75322    0.27665   1.00
H2       0.58239    0.71662    0.42530   1.00
H2       0.74002    0.77217    0.26537   1.00
C4       0.41920    0.68475    0.41730   1.00
C4       0.42061    0.64309    0.41666   1.00
C3       0.40420    0.70603    0.44973   1.00
C3       0.41099    0.61996    0.44984   1.00
C3       0.43315    0.70646    0.38450   1.00
C3       0.43207    0.62330    0.38175   1.00
C2       0.41810    0.76905    0.41945   1.00
C2       0.42159    0.55878    0.41481   1.00
C3       0.40382    0.74689    0.45092   1.00
C3       0.41125    0.57909    0.44897   1.00
C3       0.43245    0.74804    0.38697   1.00
C3       0.43175    0.58164    0.38200   1.00
H1       0.39263    0.69263    0.47354   1.00
H1       0.40380    0.63194    0.47602   1.00
C5       0.44707    0.68665    0.35036   1.00
C5       0.44365    0.64502    0.34791   1.00
H1       0.39276    0.76049    0.47522   1.00
H1       0.40386    0.56409    0.47384   1.00
H1       0.44236    0.76448    0.36434   1.00
H1       0.43946    0.56652    0.35766   1.00
C6       0.46556    0.70985    0.31762   1.00
C6       0.45168    0.62381    0.30998   1.00
H2       0.48519    0.73155    0.33007   1.00
H2       0.42911    0.60190    0.30537   1.00
H2       0.48559    0.69214    0.30056   1.00
H2       0.44748    0.64272    0.28486   1.00
C6       0.43493    0.72894    0.28951   1.00
C6       0.49359    0.60558    0.30804   1.00
H2       0.41145    0.74208    0.30665   1.00
H2       0.50025    0.59117    0.33571   1.00
C6       0.45004    0.76041    0.26005   1.00
C6       0.50215    0.57589    0.27439   1.00
H2       0.42109    0.70551    0.27290   1.00
H2       0.51450    0.62954    0.30580   1.00
C6       0.46454    0.79765    0.28132   1.00
C6       0.47794    0.53792    0.27901   1.00
C6       0.48324    0.74426    0.23396   1.00
C6       0.49399    0.59393    0.23375   1.00
C6       0.41572    0.77255    0.23307   1.00
C6       0.54597    0.56446    0.27606   1.00
H2       0.44196    0.80942    0.30049   1.00
H2       0.48257    0.52480    0.30769   1.00
H2       0.49025    0.79170    0.29902   1.00
H2       0.44683    0.54346    0.27572   1.00
H2       0.47246    0.82041    0.26051   1.00
H2       0.48608    0.51637    0.25703   1.00
H2       0.49164    0.76545    0.21171   1.00
H2       0.50268    0.57402    0.21045   1.00
H2       0.50915    0.73775    0.25122   1.00
H2       0.46300    0.60006    0.23002   1.00
H2       0.47406    0.71755    0.21927   1.00
H2       0.51007    0.62115    0.23006   1.00
H2       0.39159    0.78458    0.25005   1.00
H2       0.55321    0.55117    0.30410   1.00
H2       0.42479    0.79475    0.21208   1.00
H2       0.55335    0.54351    0.25322   1.00
H2       0.40470    0.74761    0.21662   1.00
H2       0.56463    0.58998    0.27217   1.00
C4       0.41730    0.91920    0.18475   1.00
C4       0.41666    0.92061    0.14309   1.00
C3       0.44973    0.90420    0.20603   1.00
C3       0.44984    0.91099    0.11996   1.00
C3       0.38450    0.93315    0.20646   1.00
C3       0.38175    0.93207    0.12330   1.00
C2       0.41945    0.91810    0.26905   1.00
C2       0.41481    0.92159    0.05878   1.00
C3       0.45092    0.90382    0.24689   1.00
C3       0.44897    0.91125    0.07909   1.00
C3       0.38697    0.93245    0.24804   1.00
C3       0.38200    0.93175    0.08164   1.00
H1       0.47354    0.89263    0.19263   1.00
H1       0.47602    0.90380    0.13194   1.00
C5       0.35036    0.94707    0.18665   1.00
C5       0.34791    0.94365    0.14502   1.00
H1       0.47522    0.89276    0.26049   1.00
H1       0.47384    0.90386    0.06409   1.00
H1       0.36434    0.94236    0.26448   1.00
H1       0.35766    0.93946    0.06652   1.00
C6       0.31762    0.96556    0.20985   1.00
C6       0.30998    0.95168    0.12381   1.00
H2       0.33007    0.98519    0.23155   1.00
H2       0.30537    0.92911    0.10190   1.00
H2       0.30056    0.98559    0.19214   1.00
H2       0.28486    0.94748    0.14272   1.00
C6       0.28951    0.93493    0.22894   1.00
C6       0.30804    0.99359    0.10558   1.00
H2       0.30665    0.91145    0.24208   1.00
H2       0.33571    1.00025    0.09117   1.00
C6       0.26005    0.95004    0.26041   1.00
C6       0.27439    1.00215    0.07589   1.00
H2       0.27290    0.92109    0.20551   1.00
H2       0.30580    1.01450    0.12954   1.00
C6       0.28132    0.96454    0.29765   1.00
C6       0.27901    0.97794    0.03792   1.00
C6       0.23396    0.98324    0.24426   1.00
C6       0.23375    0.99399    0.09393   1.00
C6       0.23307    0.91572    0.27255   1.00
C6       0.27606    1.04597    0.06446   1.00
H2       0.30049    0.94196    0.30942   1.00
H2       0.30769    0.98257    0.02480   1.00
H2       0.29902    0.99025    0.29170   1.00
H2       0.27572    0.94683    0.04346   1.00
H2       0.26051    0.97246    0.32041   1.00
H2       0.25703    0.98608    0.01637   1.00
H2       0.21171    0.99164    0.26545   1.00
H2       0.21045    1.00268    0.07402   1.00
H2       0.25122    1.00915    0.23775   1.00
H2       0.23002    0.96300    0.10006   1.00
H2       0.21927    0.97406    0.21755   1.00
H2       0.23006    1.01007    0.12115   1.00
H2       0.25005    0.89159    0.28458   1.00
H2       0.30410    1.05321    0.05117   1.00
H2       0.21208    0.92479    0.29475   1.00
H2       0.25322    1.05335    0.04351   1.00
H2       0.21662    0.90470    0.24761   1.00
H2       0.27217    1.06463    0.08998   1.00
C4       0.91730    0.41080    0.64525   1.00
C4       0.91666    0.40939    0.68691   1.00
C3       0.94973    0.42580    0.62397   1.00
C3       0.94984    0.41901    0.71004   1.00
C3       0.88450    0.39685    0.62354   1.00
C3       0.88175    0.39793    0.70670   1.00
C2       0.91945    0.41190    0.56095   1.00
C2       0.91481    0.40841    0.77122   1.00
C3       0.95092    0.42618    0.58311   1.00
C3       0.94897    0.41875    0.75091   1.00
C3       0.88697    0.39755    0.58196   1.00
C3       0.88200    0.39825    0.74836   1.00
H1       0.97354    0.43737    0.63737   1.00
H1       0.97602    0.42620    0.69806   1.00
C5       0.85036    0.38293    0.64335   1.00
C5       0.84791    0.38635    0.68498   1.00
H1       0.97522    0.43724    0.56951   1.00
H1       0.97384    0.42614    0.76591   1.00
H1       0.86434    0.38764    0.56552   1.00
H1       0.85766    0.39054    0.76348   1.00
C6       0.81762    0.36444    0.62015   1.00
C6       0.80998    0.37832    0.70619   1.00
H2       0.83007    0.34481    0.59845   1.00
H2       0.80537    0.40089    0.72810   1.00
H2       0.80056    0.34441    0.63786   1.00
H2       0.78486    0.38252    0.68728   1.00
C6       0.78951    0.39507    0.60106   1.00
C6       0.80804    0.33641    0.72442   1.00
H2       0.80665    0.41855    0.58792   1.00
H2       0.83571    0.32975    0.73883   1.00
C6       0.76005    0.37996    0.56959   1.00
C6       0.77439    0.32785    0.75411   1.00
H2       0.77290    0.40891    0.62449   1.00
H2       0.80580    0.31550    0.70046   1.00
C6       0.78132    0.36546    0.53235   1.00
C6       0.77901    0.35206    0.79208   1.00
C6       0.73396    0.34676    0.58574   1.00
C6       0.73375    0.33601    0.73607   1.00
C6       0.73307    0.41428    0.55745   1.00
C6       0.77606    0.28403    0.76554   1.00
H2       0.80049    0.38804    0.52058   1.00
H2       0.80769    0.34743    0.80520   1.00
H2       0.79902    0.33975    0.53830   1.00
H2       0.77572    0.38317    0.78654   1.00
H2       0.76051    0.35754    0.50959   1.00
H2       0.75703    0.34392    0.81363   1.00
H2       0.71171    0.33836    0.56455   1.00
H2       0.71045    0.32732    0.75598   1.00
H2       0.75122    0.32085    0.59225   1.00
H2       0.73002    0.36700    0.72994   1.00
H2       0.71927    0.35594    0.61245   1.00
H2       0.73006    0.31993    0.70885   1.00
H2       0.75005    0.43841    0.54542   1.00
H2       0.80410    0.27679    0.77883   1.00
H2       0.71208    0.40521    0.53525   1.00
H2       0.75322    0.27665    0.78649   1.00
H2       0.71662    0.42530    0.58239   1.00
H2       0.77217    0.26537    0.74002   1.00
C4       0.91080    0.64525    0.41730   1.00
C4       0.90939    0.68691    0.41666   1.00
C3       0.92580    0.62397    0.44973   1.00
C3       0.91901    0.71004    0.44984   1.00
C3       0.89685    0.62354    0.38450   1.00
C3       0.89793    0.70670    0.38175   1.00
C2       0.91190    0.56095    0.41945   1.00
C2       0.90841    0.77122    0.41481   1.00
C3       0.92618    0.58311    0.45092   1.00
C3       0.91875    0.75091    0.44897   1.00
C3       0.89755    0.58196    0.38697   1.00
C3       0.89825    0.74836    0.38200   1.00
H1       0.93737    0.63737    0.47354   1.00
H1       0.92620    0.69806    0.47602   1.00
C5       0.88293    0.64335    0.35036   1.00
C5       0.88635    0.68498    0.34791   1.00
H1       0.93724    0.56951    0.47522   1.00
H1       0.92614    0.76591    0.47384   1.00
H1       0.88764    0.56552    0.36434   1.00
H1       0.89054    0.76348    0.35766   1.00
C6       0.86444    0.62015    0.31762   1.00
C6       0.87832    0.70619    0.30998   1.00
H2       0.84481    0.59845    0.33007   1.00
H2       0.90089    0.72810    0.30537   1.00
H2       0.84441    0.63786    0.30056   1.00
H2       0.88252    0.68728    0.28486   1.00
C6       0.89507    0.60106    0.28951   1.00
C6       0.83641    0.72442    0.30804   1.00
H2       0.91855    0.58792    0.30665   1.00
H2       0.82975    0.73883    0.33571   1.00
C6       0.87996    0.56959    0.26005   1.00
C6       0.82785    0.75411    0.27439   1.00
H2       0.90891    0.62449    0.27290   1.00
H2       0.81550    0.70046    0.30580   1.00
C6       0.86546    0.53235    0.28132   1.00
C6       0.85206    0.79208    0.27901   1.00
C6       0.84676    0.58574    0.23396   1.00
C6       0.83601    0.73607    0.23375   1.00
C6       0.91428    0.55745    0.23307   1.00
C6       0.78403    0.76554    0.27606   1.00
H2       0.88804    0.52058    0.30049   1.00
H2       0.84743    0.80520    0.30769   1.00
H2       0.83975    0.53830    0.29902   1.00
H2       0.88317    0.78654    0.27572   1.00
H2       0.85754    0.50959    0.26051   1.00
H2       0.84392    0.81363    0.25703   1.00
H2       0.83836    0.56455    0.21171   1.00
H2       0.82732    0.75598    0.21045   1.00
H2       0.82085    0.59225    0.25122   1.00
H2       0.86700    0.72994    0.23002   1.00
H2       0.85594    0.61245    0.21927   1.00
H2       0.81993    0.70885    0.23006   1.00
H2       0.93841    0.54542    0.25005   1.00
H2       0.77679    0.77883    0.30410   1.00
H2       0.90521    0.53525    0.21208   1.00
H2       0.77665    0.78649    0.25322   1.00
H2       0.92530    0.58239    0.21662   1.00
H2       0.76537    0.74002    0.27217   1.00
C4       0.68475    0.41730    0.41920   1.00
C4       0.64309    0.41666    0.42061   1.00
C3       0.70603    0.44973    0.40420   1.00
C3       0.61996    0.44984    0.41099   1.00
C3       0.70646    0.38450    0.43315   1.00
C3       0.62330    0.38175    0.43207   1.00
C2       0.76905    0.41945    0.41810   1.00
C2       0.55878    0.41481    0.42159   1.00
C3       0.74689    0.45092    0.40382   1.00
C3       0.57909    0.44897    0.41125   1.00
C3       0.74804    0.38697    0.43245   1.00
C3       0.58164    0.38200    0.43175   1.00
H1       0.69263    0.47354    0.39263   1.00
H1       0.63194    0.47602    0.40380   1.00
C5       0.68665    0.35036    0.44707   1.00
C5       0.64502    0.34791    0.44365   1.00
H1       0.76049    0.47522    0.39276   1.00
H1       0.56409    0.47384    0.40386   1.00
H1       0.76448    0.36434    0.44236   1.00
H1       0.56652    0.35766    0.43946   1.00
C6       0.70985    0.31762    0.46556   1.00
C6       0.62381    0.30998    0.45168   1.00
H2       0.73155    0.33007    0.48519   1.00
H2       0.60190    0.30537    0.42911   1.00
H2       0.69214    0.30056    0.48559   1.00
H2       0.64272    0.28486    0.44748   1.00
C6       0.72894    0.28951    0.43493   1.00
C6       0.60558    0.30804    0.49359   1.00
H2       0.74208    0.30665    0.41145   1.00
H2       0.59117    0.33571    0.50025   1.00
C6       0.76041    0.26005    0.45004   1.00
C6       0.57589    0.27439    0.50215   1.00
H2       0.70551    0.27290    0.42109   1.00
H2       0.62954    0.30580    0.51450   1.00
C6       0.79765    0.28132    0.46454   1.00
C6       0.53792    0.27901    0.47794   1.00
C6       0.74426    0.23396    0.48324   1.00
C6       0.59393    0.23375    0.49399   1.00
C6       0.77255    0.23307    0.41572   1.00
C6       0.56446    0.27606    0.54597   1.00
H2       0.80942    0.30049    0.44196   1.00
H2       0.52480    0.30769    0.48257   1.00
H2       0.79170    0.29902    0.49025   1.00
H2       0.54346    0.27572    0.44683   1.00
H2       0.82041    0.26051    0.47246   1.00
H2       0.51637    0.25703    0.48608   1.00
H2       0.76545    0.21171    0.49164   1.00
H2       0.57402    0.21045    0.50268   1.00
H2       0.73775    0.25122    0.50915   1.00
H2       0.60006    0.23002    0.46300   1.00
H2       0.71755    0.21927    0.47406   1.00
H2       0.62115    0.23006    0.51007   1.00
H2       0.78458    0.25005    0.39159   1.00
H2       0.55117    0.30410    0.55321   1.00
H2       0.79475    0.21208    0.42479   1.00
H2       0.54351    0.25322    0.55335   1.00
H2       0.74761    0.21662    0.40470   1.00
H2       0.58998    0.27217    0.56463   1.00
C4       1.14525    0.41730    0.41080   1.00
C4       1.18691    0.41666    0.40939   1.00
C3       1.12397    0.44973    0.42580   1.00
C3       1.21004    0.44984    0.41901   1.00
C3       1.12354    0.38450    0.39685   1.00
C3       1.20670    0.38175    0.39793   1.00
C2       1.06095    0.41945    0.41190   1.00
C2       1.27122    0.41481    0.40841   1.00
C3       1.08311    0.45092    0.42618   1.00
C3       1.25091    0.44897    0.41875   1.00
C3       1.08196    0.38697    0.39755   1.00
C3       1.24836    0.38200    0.39825   1.00
H1       1.13737    0.47354    0.43737   1.00
H1       1.19806    0.47602    0.42620   1.00
C5       1.14335    0.35036    0.38293   1.00
C5       1.18498    0.34791    0.38635   1.00
H1       1.06951    0.47522    0.43724   1.00
H1       1.26591    0.47384    0.42614   1.00
H1       1.06552    0.36434    0.38764   1.00
H1       1.26348    0.35766    0.39054   1.00
C6       1.12015    0.31762    0.36444   1.00
C6       1.20619    0.30998    0.37832   1.00
H2       1.09845    0.33007    0.34481   1.00
H2       1.22810    0.30537    0.40089   1.00
H2       1.13786    0.30056    0.34441   1.00
H2       1.18728    0.28486    0.38252   1.00
C6       1.10106    0.28951    0.39507   1.00
C6       1.22442    0.30804    0.33641   1.00
H2       1.08792    0.30665    0.41855   1.00
H2       1.23883    0.33571    0.32975   1.00
C6       1.06959    0.26005    0.37996   1.00
C6       1.25411    0.27439    0.32785   1.00
H2       1.12449    0.27290    0.40891   1.00
H2       1.20046    0.30580    0.31550   1.00
C6       1.03235    0.28132    0.36546   1.00
C6       1.29208    0.27901    0.35206   1.00
C6       1.08574    0.23396    0.34676   1.00
C6       1.23607    0.23375    0.33601   1.00
C6       1.05745    0.23307    0.41428   1.00
C6       1.26554    0.27606    0.28403   1.00
H2       1.02058    0.30049    0.38804   1.00
H2       1.30520    0.30769    0.34743   1.00
H2       1.03830    0.29902    0.33975   1.00
H2       1.28654    0.27572    0.38317   1.00
H2       1.00959    0.26051    0.35754   1.00
H2       1.31363    0.25703    0.34392   1.00
H2       1.06455    0.21171    0.33836   1.00
H2       1.25598    0.21045    0.32732   1.00
H2       1.09225    0.25122    0.32085   1.00
H2       1.22994    0.23002    0.36700   1.00
H2       1.11245    0.21927    0.35594   1.00
H2       1.20885    0.23006    0.31993   1.00
H2       1.04542    0.25005    0.43841   1.00
H2       1.27883    0.30410    0.27679   1.00
H2       1.03525    0.21208    0.40521   1.00
H2       1.28649    0.25322    0.27665   1.00
H2       1.08239    0.21662    0.42530   1.00
H2       1.24002    0.27217    0.26537   1.00
C4       0.91920    0.18475    0.41730   1.00
C4       0.92061    0.14309    0.41666   1.00
C3       0.90420    0.20603    0.44973   1.00
C3       0.91099    0.11996    0.44984   1.00
C3       0.93315    0.20646    0.38450   1.00
C3       0.93207    0.12330    0.38175   1.00
C2       0.91810    0.26905    0.41945   1.00
C2       0.92159    0.05878    0.41481   1.00
C3       0.90382    0.24689    0.45092   1.00
C3       0.91125    0.07909    0.44897   1.00
C3       0.93245    0.24804    0.38697   1.00
C3       0.93175    0.08164    0.38200   1.00
H1       0.89263    0.19263    0.47354   1.00
H1       0.90380    0.13194    0.47602   1.00
C5       0.94707    0.18665    0.35036   1.00
C5       0.94365    0.14502    0.34791   1.00
H1       0.89276    0.26049    0.47522   1.00
H1       0.90386    0.06409    0.47384   1.00
H1       0.94236    0.26448    0.36434   1.00
H1       0.93946    0.06652    0.35766   1.00
C6       0.96556    0.20985    0.31762   1.00
C6       0.95168    0.12381    0.30998   1.00
H2       0.98519    0.23155    0.33007   1.00
H2       0.92911    0.10190    0.30537   1.00
H2       0.98559    0.19214    0.30056   1.00
H2       0.94748    0.14272    0.28486   1.00
C6       0.93493    0.22894    0.28951   1.00
C6       0.99359    0.10558    0.30804   1.00
H2       0.91145    0.24208    0.30665   1.00
H2       1.00025    0.09117    0.33571   1.00
C6       0.95004    0.26041    0.26005   1.00
C6       1.00215    0.07589    0.27439   1.00
H2       0.92109    0.20551    0.27290   1.00
H2       1.01450    0.12954    0.30580   1.00
C6       0.96454    0.29765    0.28132   1.00
C6       0.97794    0.03792    0.27901   1.00
C6       0.98324    0.24426    0.23396   1.00
C6       0.99399    0.09393    0.23375   1.00
C6       0.91572    0.27255    0.23307   1.00
C6       1.04597    0.06446    0.27606   1.00
H2       0.94196    0.30942    0.30049   1.00
H2       0.98257    0.02480    0.30769   1.00
H2       0.99025    0.29170    0.29902   1.00
H2       0.94683    0.04346    0.27572   1.00
H2       0.97246    0.32041    0.26051   1.00
H2       0.98608    0.01637    0.25703   1.00
H2       0.99164    0.26545    0.21171   1.00
H2       1.00268    0.07402    0.21045   1.00
H2       1.00915    0.23775    0.25122   1.00
H2       0.96300    0.10006    0.23002   1.00
H2       0.97406    0.21755    0.21927   1.00
H2       1.01007    0.12115    0.23006   1.00
H2       0.89159    0.28458    0.25005   1.00
H2       1.05321    0.05117    0.30410   1.00
H2       0.92479    0.29475    0.21208   1.00
H2       1.05335    0.04351    0.25322   1.00
H2       0.90470    0.24761    0.21662   1.00
H2       1.06463    0.08998    0.27217   1.00
C4       0.91730    0.41920    0.18475   1.00
C4       0.91666    0.42061    0.14309   1.00
C3       0.94973    0.40420    0.20603   1.00
C3       0.94984    0.41099    0.11996   1.00
C3       0.88450    0.43315    0.20646   1.00
C3       0.88175    0.43207    0.12330   1.00
C2       0.91945    0.41810    0.26905   1.00
C2       0.91481    0.42159    0.05878   1.00
C3       0.95092    0.40382    0.24689   1.00
C3       0.94897    0.41125    0.07909   1.00
C3       0.88697    0.43245    0.24804   1.00
C3       0.88200    0.43175    0.08164   1.00
H1       0.97354    0.39263    0.19263   1.00
H1       0.97602    0.40380    0.13194   1.00
C5       0.85036    0.44707    0.18665   1.00
C5       0.84791    0.44365    0.14502   1.00
H1       0.97522    0.39276    0.26049   1.00
H1       0.97384    0.40386    0.06409   1.00
H1       0.86434    0.44236    0.26448   1.00
H1       0.85766    0.43946    0.06652   1.00
C6       0.81762    0.46556    0.20985   1.00
C6       0.80998    0.45168    0.12381   1.00
H2       0.83007    0.48519    0.23155   1.00
H2       0.80537    0.42911    0.10190   1.00
H2       0.80056    0.48559    0.19214   1.00
H2       0.78486    0.44748    0.14272   1.00
C6       0.78951    0.43493    0.22894   1.00
C6       0.80804    0.49359    0.10558   1.00
H2       0.80665    0.41145    0.24208   1.00
H2       0.83571    0.50025    0.09117   1.00
C6       0.76005    0.45004    0.26041   1.00
C6       0.77439    0.50215    0.07589   1.00
H2       0.77290    0.42109    0.20551   1.00
H2       0.80580    0.51450    0.12954   1.00
C6       0.78132    0.46454    0.29765   1.00
C6       0.77901    0.47794    0.03792   1.00
C6       0.73396    0.48324    0.24426   1.00
C6       0.73375    0.49399    0.09393   1.00
C6       0.73307    0.41572    0.27255   1.00
C6       0.77606    0.54597    0.06446   1.00
H2       0.80049    0.44196    0.30942   1.00
H2       0.80769    0.48257    0.02480   1.00
H2       0.79902    0.49025    0.29170   1.00
H2       0.77572    0.44683    0.04346   1.00
H2       0.76051    0.47246    0.32041   1.00
H2       0.75703    0.48608    0.01637   1.00
H2       0.71171    0.49164    0.26545   1.00
H2       0.71045    0.50268    0.07402   1.00
H2       0.75122    0.50915    0.23775   1.00
H2       0.73002    0.46300    0.10006   1.00
H2       0.71927    0.47406    0.21755   1.00
H2       0.73006    0.51007    0.12115   1.00
H2       0.75005    0.39159    0.28458   1.00
H2       0.80410    0.55321    0.05117   1.00
H2       0.71208    0.42479    0.29475   1.00
H2       0.75322    0.55335    0.04351   1.00
H2       0.71662    0.40470    0.24761   1.00
H2       0.77217    0.56463    0.08998   1.00
