data_IRMOF10_SG202_interpen_Ligand11cp_label_w.

_audit_creation_method             'generated by an auxiliary program of Tobunporous'

_symmetry_space_group_name_H-M     'P 1'
_symmetry_Int_Tables_number        1
_symmetry_cell_setting             triclinic

_cell_length_a                    34.2800
_cell_length_b                    34.2800
_cell_length_c                    34.2800
_cell_angle_alpha                 90.0000
_cell_angle_beta                  90.0000
_cell_angle_gamma                 90.0000

loop_
_atom_site_label
_atom_site_fract_x
_atom_site_fract_y
_atom_site_fract_z
_atom_site_occupancy
O1       0.75000    0.75000    0.75000   1.00
Zn1      0.71720    0.78280    0.78280   1.00
Zn1      0.78280    0.71720    0.78280   1.00
Zn1      0.78280    0.78280    0.71720   1.00
Zn1      0.71720    0.71720    0.71720   1.00
O2       0.72650    0.77350    0.83820   1.00
O2       0.72650    0.83820    0.77350   1.00
O2       0.66180    0.77350    0.77350   1.00
O2       0.77350    0.72650    0.83820   1.00
O2       0.83820    0.72650    0.77350   1.00
O2       0.77350    0.66180    0.77350   1.00
O2       0.77350    0.83820    0.72650   1.00
O2       0.83820    0.77350    0.72650   1.00
O2       0.77350    0.77350    0.66180   1.00
O2       0.66180    0.72650    0.72650   1.00
O2       0.72650    0.66180    0.72650   1.00
O2       0.72650    0.72650    0.66180   1.00
C1       0.75000    0.75000    0.85520   1.00
C1       0.75000    0.85520    0.75000   1.00
C1       0.64480    0.75000    0.75000   1.00
C1       0.85520    0.75000    0.75000   1.00
C1       0.75000    0.64480    0.75000   1.00
C1       0.75000    0.75000    0.64480   1.00
O1       0.25000    0.25000    0.75000   1.00
Zn1      0.21720    0.28280    0.78280   1.00
Zn1      0.28280    0.21720    0.78280   1.00
Zn1      0.28280    0.28280    0.71720   1.00
Zn1      0.21720    0.21720    0.71720   1.00
O2       0.22650    0.27350    0.83820   1.00
O2       0.22650    0.33820    0.77350   1.00
O2       0.16180    0.27350    0.77350   1.00
O2       0.27350    0.22650    0.83820   1.00
O2       0.33820    0.22650    0.77350   1.00
O2       0.27350    0.16180    0.77350   1.00
O2       0.27350    0.33820    0.72650   1.00
O2       0.33820    0.27350    0.72650   1.00
O2       0.27350    0.27350    0.66180   1.00
O2       0.16180    0.22650    0.72650   1.00
O2       0.22650    0.16180    0.72650   1.00
O2       0.22650    0.22650    0.66180   1.00
C1       0.25000    0.25000    0.85520   1.00
C1       0.25000    0.35520    0.75000   1.00
C1       0.14480    0.25000    0.75000   1.00
C1       0.35520    0.25000    0.75000   1.00
C1       0.25000    0.14480    0.75000   1.00
C1       0.25000    0.25000    0.64480   1.00
O1       0.25000    0.75000    0.25000   1.00
Zn1      0.21720    0.78280    0.28280   1.00
Zn1      0.28280    0.71720    0.28280   1.00
Zn1      0.28280    0.78280    0.21720   1.00
Zn1      0.21720    0.71720    0.21720   1.00
O2       0.22650    0.77350    0.33820   1.00
O2       0.22650    0.83820    0.27350   1.00
O2       0.16180    0.77350    0.27350   1.00
O2       0.27350    0.72650    0.33820   1.00
O2       0.33820    0.72650    0.27350   1.00
O2       0.27350    0.66180    0.27350   1.00
O2       0.27350    0.83820    0.22650   1.00
O2       0.33820    0.77350    0.22650   1.00
O2       0.27350    0.77350    0.16180   1.00
O2       0.16180    0.72650    0.22650   1.00
O2       0.22650    0.66180    0.22650   1.00
O2       0.22650    0.72650    0.16180   1.00
C1       0.25000    0.75000    0.35520   1.00
C1       0.25000    0.85520    0.25000   1.00
C1       0.14480    0.75000    0.25000   1.00
C1       0.35520    0.75000    0.25000   1.00
C1       0.25000    0.64480    0.25000   1.00
C1       0.25000    0.75000    0.14480   1.00
O1       0.75000    0.25000    0.25000   1.00
Zn1      0.71720    0.28280    0.28280   1.00
Zn1      0.78280    0.21720    0.28280   1.00
Zn1      0.78280    0.28280    0.21720   1.00
Zn1      0.71720    0.21720    0.21720   1.00
O2       0.72650    0.27350    0.33820   1.00
O2       0.72650    0.33820    0.27350   1.00
O2       0.66180    0.27350    0.27350   1.00
O2       0.77350    0.22650    0.33820   1.00
O2       0.83820    0.22650    0.27350   1.00
O2       0.77350    0.16180    0.27350   1.00
O2       0.77350    0.33820    0.22650   1.00
O2       0.83820    0.27350    0.22650   1.00
O2       0.77350    0.27350    0.16180   1.00
O2       0.66180    0.22650    0.22650   1.00
O2       0.72650    0.16180    0.22650   1.00
O2       0.72650    0.22650    0.16180   1.00
C1       0.75000    0.25000    0.35520   1.00
C1       0.75000    0.35520    0.25000   1.00
C1       0.64480    0.25000    0.25000   1.00
C1       0.85520    0.25000    0.25000   1.00
C1       0.75000    0.14480    0.25000   1.00
C1       0.75000    0.25000    0.14480   1.00
O1       0.25000    0.25000    0.25000   1.00
Zn1      0.28280    0.21720    0.21720   1.00
Zn1      0.21720    0.28280    0.21720   1.00
Zn1      0.21720    0.21720    0.28280   1.00
Zn1      0.28280    0.28280    0.28280   1.00
O2       0.27350    0.22650    0.16180   1.00
O2       0.27350    0.16180    0.22650   1.00
O2       0.33820    0.22650    0.22650   1.00
O2       0.22650    0.27350    0.16180   1.00
O2       0.16180    0.27350    0.22650   1.00
O2       0.22650    0.33820    0.22650   1.00
O2       0.22650    0.16180    0.27350   1.00
O2       0.16180    0.22650    0.27350   1.00
O2       0.22650    0.22650    0.33820   1.00
O2       0.33820    0.27350    0.27350   1.00
O2       0.27350    0.33820    0.27350   1.00
O2       0.27350    0.27350    0.33820   1.00
C1       0.25000    0.25000    0.14480   1.00
C1       0.25000    0.14480    0.25000   1.00
C1       0.35520    0.25000    0.25000   1.00
C1       0.14480    0.25000    0.25000   1.00
C1       0.25000    0.35520    0.25000   1.00
C1       0.25000    0.25000    0.35520   1.00
O1       0.75000    0.75000    0.25000   1.00
Zn1      0.78280    0.71720    0.21720   1.00
Zn1      0.71720    0.78280    0.21720   1.00
Zn1      0.71720    0.71720    0.28280   1.00
Zn1      0.78280    0.78280    0.28280   1.00
O2       0.77350    0.72650    0.16180   1.00
O2       0.77350    0.66180    0.22650   1.00
O2       0.83820    0.72650    0.22650   1.00
O2       0.72650    0.77350    0.16180   1.00
O2       0.66180    0.77350    0.22650   1.00
O2       0.72650    0.83820    0.22650   1.00
O2       0.72650    0.66180    0.27350   1.00
O2       0.66180    0.72650    0.27350   1.00
O2       0.72650    0.72650    0.33820   1.00
O2       0.83820    0.77350    0.27350   1.00
O2       0.77350    0.83820    0.27350   1.00
O2       0.77350    0.77350    0.33820   1.00
C1       0.75000    0.75000    0.14480   1.00
C1       0.75000    0.64480    0.25000   1.00
C1       0.85520    0.75000    0.25000   1.00
C1       0.64480    0.75000    0.25000   1.00
C1       0.75000    0.85520    0.25000   1.00
C1       0.75000    0.75000    0.35520   1.00
O1       0.75000    0.25000    0.75000   1.00
Zn1      0.78280    0.21720    0.71720   1.00
Zn1      0.71720    0.28280    0.71720   1.00
Zn1      0.71720    0.21720    0.78280   1.00
Zn1      0.78280    0.28280    0.78280   1.00
O2       0.77350    0.22650    0.66180   1.00
O2       0.77350    0.16180    0.72650   1.00
O2       0.83820    0.22650    0.72650   1.00
O2       0.72650    0.27350    0.66180   1.00
O2       0.66180    0.27350    0.72650   1.00
O2       0.72650    0.33820    0.72650   1.00
O2       0.72650    0.16180    0.77350   1.00
O2       0.66180    0.22650    0.77350   1.00
O2       0.72650    0.22650    0.83820   1.00
O2       0.83820    0.27350    0.77350   1.00
O2       0.77350    0.33820    0.77350   1.00
O2       0.77350    0.27350    0.83820   1.00
C1       0.75000    0.25000    0.64480   1.00
C1       0.75000    0.14480    0.75000   1.00
C1       0.85520    0.25000    0.75000   1.00
C1       0.64480    0.25000    0.75000   1.00
C1       0.75000    0.35520    0.75000   1.00
C1       0.75000    0.25000    0.85520   1.00
O1       0.25000    0.75000    0.75000   1.00
Zn1      0.28280    0.71720    0.71720   1.00
Zn1      0.21720    0.78280    0.71720   1.00
Zn1      0.21720    0.71720    0.78280   1.00
Zn1      0.28280    0.78280    0.78280   1.00
O2       0.27350    0.72650    0.66180   1.00
O2       0.27350    0.66180    0.72650   1.00
O2       0.33820    0.72650    0.72650   1.00
O2       0.22650    0.77350    0.66180   1.00
O2       0.16180    0.77350    0.72650   1.00
O2       0.22650    0.83820    0.72650   1.00
O2       0.22650    0.66180    0.77350   1.00
O2       0.16180    0.72650    0.77350   1.00
O2       0.22650    0.72650    0.83820   1.00
O2       0.33820    0.77350    0.77350   1.00
O2       0.27350    0.83820    0.77350   1.00
O2       0.27350    0.77350    0.83820   1.00
C1       0.25000    0.75000    0.64480   1.00
C1       0.25000    0.64480    0.75000   1.00
C1       0.35520    0.75000    0.75000   1.00
C1       0.14480    0.75000    0.75000   1.00
C1       0.25000    0.85520    0.75000   1.00
C1       0.25000    0.75000    0.85520   1.00
O1       0.91500    0.91500    0.91500   1.00
Zn1      0.88220    0.94780    0.94780   1.00
Zn1      0.94780    0.88220    0.94780   1.00
Zn1      0.94780    0.94780    0.88220   1.00
Zn1      0.88220    0.88220    0.88220   1.00
O2       0.89150    0.93850    1.00320   1.00
O2       0.89150    1.00320    0.93850   1.00
O2       0.82680    0.93850    0.93850   1.00
O2       0.93850    0.89150    1.00320   1.00
O2       1.00320    0.89150    0.93850   1.00
O2       0.93850    0.82680    0.93850   1.00
O2       0.93850    1.00320    0.89150   1.00
O2       1.00320    0.93850    0.89150   1.00
O2       0.93850    0.93850    0.82680   1.00
O2       0.82680    0.89150    0.89150   1.00
O2       0.89150    0.82680    0.89150   1.00
O2       0.89150    0.89150    0.82680   1.00
C1       0.91500    0.91500    1.02020   1.00
C1       0.91500    1.02020    0.91500   1.00
C1       0.80980    0.91500    0.91500   1.00
C1       1.02020    0.91500    0.91500   1.00
C1       0.91500    0.80980    0.91500   1.00
C1       0.91500    0.91500    0.80980   1.00
O1       0.41500    0.41500    0.91500   1.00
Zn1      0.38220    0.44780    0.94780   1.00
Zn1      0.44780    0.38220    0.94780   1.00
Zn1      0.44780    0.44780    0.88220   1.00
Zn1      0.38220    0.38220    0.88220   1.00
O2       0.39150    0.43850    1.00320   1.00
O2       0.39150    0.50320    0.93850   1.00
O2       0.32680    0.43850    0.93850   1.00
O2       0.43850    0.39150    1.00320   1.00
O2       0.50320    0.39150    0.93850   1.00
O2       0.43850    0.32680    0.93850   1.00
O2       0.43850    0.50320    0.89150   1.00
O2       0.50320    0.43850    0.89150   1.00
O2       0.43850    0.43850    0.82680   1.00
O2       0.32680    0.39150    0.89150   1.00
O2       0.39150    0.32680    0.89150   1.00
O2       0.39150    0.39150    0.82680   1.00
C1       0.41500    0.41500    1.02020   1.00
C1       0.41500    0.52020    0.91500   1.00
C1       0.30980    0.41500    0.91500   1.00
C1       0.52020    0.41500    0.91500   1.00
C1       0.41500    0.30980    0.91500   1.00
C1       0.41500    0.41500    0.80980   1.00
O1       0.41500    0.91500    0.41500   1.00
Zn1      0.38220    0.94780    0.44780   1.00
Zn1      0.44780    0.88220    0.44780   1.00
Zn1      0.44780    0.94780    0.38220   1.00
Zn1      0.38220    0.88220    0.38220   1.00
O2       0.39150    0.93850    0.50320   1.00
O2       0.39150    1.00320    0.43850   1.00
O2       0.32680    0.93850    0.43850   1.00
O2       0.43850    0.89150    0.50320   1.00
O2       0.50320    0.89150    0.43850   1.00
O2       0.43850    0.82680    0.43850   1.00
O2       0.43850    1.00320    0.39150   1.00
O2       0.50320    0.93850    0.39150   1.00
O2       0.43850    0.93850    0.32680   1.00
O2       0.32680    0.89150    0.39150   1.00
O2       0.39150    0.82680    0.39150   1.00
O2       0.39150    0.89150    0.32680   1.00
C1       0.41500    0.91500    0.52020   1.00
C1       0.41500    1.02020    0.41500   1.00
C1       0.30980    0.91500    0.41500   1.00
C1       0.52020    0.91500    0.41500   1.00
C1       0.41500    0.80980    0.41500   1.00
C1       0.41500    0.91500    0.30980   1.00
O1       0.91500    0.41500    0.41500   1.00
Zn1      0.88220    0.44780    0.44780   1.00
Zn1      0.94780    0.38220    0.44780   1.00
Zn1      0.94780    0.44780    0.38220   1.00
Zn1      0.88220    0.38220    0.38220   1.00
O2       0.89150    0.43850    0.50320   1.00
O2       0.89150    0.50320    0.43850   1.00
O2       0.82680    0.43850    0.43850   1.00
O2       0.93850    0.39150    0.50320   1.00
O2       1.00320    0.39150    0.43850   1.00
O2       0.93850    0.32680    0.43850   1.00
O2       0.93850    0.50320    0.39150   1.00
O2       1.00320    0.43850    0.39150   1.00
O2       0.93850    0.43850    0.32680   1.00
O2       0.82680    0.39150    0.39150   1.00
O2       0.89150    0.32680    0.39150   1.00
O2       0.89150    0.39150    0.32680   1.00
C1       0.91500    0.41500    0.52020   1.00
C1       0.91500    0.52020    0.41500   1.00
C1       0.80980    0.41500    0.41500   1.00
C1       1.02020    0.41500    0.41500   1.00
C1       0.91500    0.30980    0.41500   1.00
C1       0.91500    0.41500    0.30980   1.00
O1       0.41500    0.41500    0.41500   1.00
Zn1      0.44780    0.38220    0.38220   1.00
Zn1      0.38220    0.44780    0.38220   1.00
Zn1      0.38220    0.38220    0.44780   1.00
Zn1      0.44780    0.44780    0.44780   1.00
O2       0.43850    0.39150    0.32680   1.00
O2       0.43850    0.32680    0.39150   1.00
O2       0.50320    0.39150    0.39150   1.00
O2       0.39150    0.43850    0.32680   1.00
O2       0.32680    0.43850    0.39150   1.00
O2       0.39150    0.50320    0.39150   1.00
O2       0.39150    0.32680    0.43850   1.00
O2       0.32680    0.39150    0.43850   1.00
O2       0.39150    0.39150    0.50320   1.00
O2       0.50320    0.43850    0.43850   1.00
O2       0.43850    0.50320    0.43850   1.00
O2       0.43850    0.43850    0.50320   1.00
C1       0.41500    0.41500    0.30980   1.00
C1       0.41500    0.30980    0.41500   1.00
C1       0.52020    0.41500    0.41500   1.00
C1       0.30980    0.41500    0.41500   1.00
C1       0.41500    0.52020    0.41500   1.00
C1       0.41500    0.41500    0.52020   1.00
O1       0.91500    0.91500    0.41500   1.00
Zn1      0.94780    0.88220    0.38220   1.00
Zn1      0.88220    0.94780    0.38220   1.00
Zn1      0.88220    0.88220    0.44780   1.00
Zn1      0.94780    0.94780    0.44780   1.00
O2       0.93850    0.89150    0.32680   1.00
O2       0.93850    0.82680    0.39150   1.00
O2       1.00320    0.89150    0.39150   1.00
O2       0.89150    0.93850    0.32680   1.00
O2       0.82680    0.93850    0.39150   1.00
O2       0.89150    1.00320    0.39150   1.00
O2       0.89150    0.82680    0.43850   1.00
O2       0.82680    0.89150    0.43850   1.00
O2       0.89150    0.89150    0.50320   1.00
O2       1.00320    0.93850    0.43850   1.00
O2       0.93850    1.00320    0.43850   1.00
O2       0.93850    0.93850    0.50320   1.00
C1       0.91500    0.91500    0.30980   1.00
C1       0.91500    0.80980    0.41500   1.00
C1       1.02020    0.91500    0.41500   1.00
C1       0.80980    0.91500    0.41500   1.00
C1       0.91500    1.02020    0.41500   1.00
C1       0.91500    0.91500    0.52020   1.00
O1       0.91500    0.41500    0.91500   1.00
Zn1      0.94780    0.38220    0.88220   1.00
Zn1      0.88220    0.44780    0.88220   1.00
Zn1      0.88220    0.38220    0.94780   1.00
Zn1      0.94780    0.44780    0.94780   1.00
O2       0.93850    0.39150    0.82680   1.00
O2       0.93850    0.32680    0.89150   1.00
O2       1.00320    0.39150    0.89150   1.00
O2       0.89150    0.43850    0.82680   1.00
O2       0.82680    0.43850    0.89150   1.00
O2       0.89150    0.50320    0.89150   1.00
O2       0.89150    0.32680    0.93850   1.00
O2       0.82680    0.39150    0.93850   1.00
O2       0.89150    0.39150    1.00320   1.00
O2       1.00320    0.43850    0.93850   1.00
O2       0.93850    0.50320    0.93850   1.00
O2       0.93850    0.43850    1.00320   1.00
C1       0.91500    0.41500    0.80980   1.00
C1       0.91500    0.30980    0.91500   1.00
C1       1.02020    0.41500    0.91500   1.00
C1       0.80980    0.41500    0.91500   1.00
C1       0.91500    0.52020    0.91500   1.00
C1       0.91500    0.41500    1.02020   1.00
O1       0.41500    0.91500    0.91500   1.00
Zn1      0.44780    0.88220    0.88220   1.00
Zn1      0.38220    0.94780    0.88220   1.00
Zn1      0.38220    0.88220    0.94780   1.00
Zn1      0.44780    0.94780    0.94780   1.00
O2       0.43850    0.89150    0.82680   1.00
O2       0.43850    0.82680    0.89150   1.00
O2       0.50320    0.89150    0.89150   1.00
O2       0.39150    0.93850    0.82680   1.00
O2       0.32680    0.93850    0.89150   1.00
O2       0.39150    1.00320    0.89150   1.00
O2       0.39150    0.82680    0.93850   1.00
O2       0.32680    0.89150    0.93850   1.00
O2       0.39150    0.89150    1.00320   1.00
O2       0.50320    0.93850    0.93850   1.00
O2       0.43850    1.00320    0.93850   1.00
O2       0.43850    0.93850    1.00320   1.00
C1       0.41500    0.91500    0.80980   1.00
C1       0.41500    0.80980    0.91500   1.00
C1       0.52020    0.91500    0.91500   1.00
C1       0.30980    0.91500    0.91500   1.00
C1       0.41500    1.02020    0.91500   1.00
C1       0.41500    0.91500    1.02020   1.00
C4       0.74988    0.75016    0.97915   1.00
C4       0.75012    0.74984    1.02085   1.00
C3a      0.71534    0.75868    0.95746   1.00
C3       0.75229    0.78490    1.04232   1.00
C3       0.78408    0.74212    0.95768   1.00
C3a      0.74830    0.71431    1.04254   1.00
C2       0.75006    0.75005    0.89488   1.00
C2       0.75007    0.75005    1.10512   1.00
C3       0.71596    0.75841    0.91595   1.00
C3       0.75215    0.78496    1.08363   1.00
C3       0.78409    0.74196    0.91637   1.00
C3       0.74823    0.71498    1.08405   1.00
C5       0.67713    0.76758    0.97772   1.00
H1       0.75371    0.81246    1.02691   1.00
H1       0.68959    0.76471    0.89979   1.00
H1       0.75363    0.81250    1.09901   1.00
H1       0.81088    0.73542    0.90099   1.00
H1       0.74664    0.68791    1.10021   1.00
C5       0.74579    0.67515    1.02228   1.00
H1       0.81087    0.73552    0.97309   1.00
H2       0.73355    0.65304    1.04256   1.00
H2       0.72520    0.67677    0.99731   1.00
H2       0.65242    0.76225    0.95744   1.00
H2       0.67273    0.74740    1.00269   1.00
N1       0.78421    0.66251    1.00857   1.00
C6       0.81484    0.65300    1.03073   1.00
C6       0.79501    0.65721    0.97154   1.00
C6       0.84578    0.64198    1.00759   1.00
C6       0.83316    0.64465    0.96995   1.00
H3       0.81497    0.65429    1.06197   1.00
H3       0.77642    0.66244    0.94700   1.00
H3       0.87432    0.63298    1.01713   1.00
H3       0.84992    0.63819    0.94425   1.00
N1       0.67612    0.80801    0.99143   1.00
C6       0.67416    0.81989    1.02846   1.00
C6       0.67586    0.84009    0.96927   1.00
C6       0.67315    0.86004    1.03005   1.00
C6       0.67424    0.87289    0.99241   1.00
H3       0.67380    0.80058    1.05300   1.00
H3       0.67712    0.83984    0.93803   1.00
H3       0.67180    0.87795    1.05575   1.00
H3       0.67386    0.90282    0.98287   1.00
C4       0.75016    0.97915    0.74988   1.00
C4       0.74984    1.02085    0.75012   1.00
C3a      0.75868    0.95746    0.71534   1.00
C3       0.78490    1.04232    0.75229   1.00
C3       0.74212    0.95768    0.78408   1.00
C3a      0.71431    1.04254    0.74830   1.00
C2       0.75005    0.89488    0.75006   1.00
C2       0.75005    1.10512    0.75007   1.00
C3       0.75841    0.91595    0.71596   1.00
C3       0.78496    1.08363    0.75215   1.00
C3       0.74196    0.91637    0.78409   1.00
C3       0.71498    1.08405    0.74823   1.00
C5       0.76758    0.97772    0.67713   1.00
H1       0.81246    1.02691    0.75371   1.00
H1       0.76471    0.89979    0.68959   1.00
H1       0.81250    1.09901    0.75363   1.00
H1       0.73542    0.90099    0.81088   1.00
H1       0.68791    1.10021    0.74664   1.00
C5       0.67515    1.02228    0.74579   1.00
H1       0.73552    0.97309    0.81087   1.00
H2       0.65304    1.04256    0.73355   1.00
H2       0.67677    0.99731    0.72520   1.00
H2       0.76225    0.95744    0.65242   1.00
H2       0.74740    1.00269    0.67273   1.00
N1       0.66251    1.00857    0.78421   1.00
C6       0.65300    1.03073    0.81484   1.00
C6       0.65721    0.97154    0.79501   1.00
C6       0.64198    1.00759    0.84578   1.00
C6       0.64465    0.96995    0.83316   1.00
H3       0.65429    1.06197    0.81497   1.00
H3       0.66244    0.94700    0.77642   1.00
H3       0.63298    1.01713    0.87432   1.00
H3       0.63819    0.94425    0.84992   1.00
N1       0.80801    0.99143    0.67612   1.00
C6       0.81989    1.02846    0.67416   1.00
C6       0.84009    0.96927    0.67586   1.00
C6       0.86004    1.03005    0.67315   1.00
C6       0.87289    0.99241    0.67424   1.00
H3       0.80058    1.05300    0.67380   1.00
H3       0.83984    0.93803    0.67712   1.00
H3       0.87795    1.05575    0.67180   1.00
H3       0.90282    0.98287    0.67386   1.00
C4       0.52085    0.74988    0.74984   1.00
C4       0.47915    0.75012    0.75016   1.00
C3a      0.54254    0.71534    0.74132   1.00
C3       0.45768    0.75229    0.71510   1.00
C3       0.54232    0.78408    0.75788   1.00
C3a      0.45746    0.74830    0.78569   1.00
C2       0.60512    0.75006    0.74995   1.00
C2       0.39488    0.75007    0.74995   1.00
C3       0.58405    0.71596    0.74159   1.00
C3       0.41637    0.75215    0.71504   1.00
C3       0.58363    0.78409    0.75804   1.00
C3       0.41595    0.74823    0.78502   1.00
C5       0.52228    0.67713    0.73242   1.00
H1       0.47309    0.75371    0.68754   1.00
H1       0.60021    0.68959    0.73529   1.00
H1       0.40099    0.75363    0.68750   1.00
H1       0.59901    0.81088    0.76458   1.00
H1       0.39979    0.74664    0.81209   1.00
C5       0.47772    0.74579    0.82485   1.00
H1       0.52691    0.81087    0.76448   1.00
H2       0.45744    0.73355    0.84696   1.00
H2       0.50269    0.72520    0.82323   1.00
H2       0.54256    0.65242    0.73775   1.00
H2       0.49731    0.67273    0.75260   1.00
N1       0.49143    0.78421    0.83749   1.00
C6       0.46927    0.81484    0.84700   1.00
C6       0.52846    0.79501    0.84279   1.00
C6       0.49241    0.84578    0.85802   1.00
C6       0.53005    0.83316    0.85535   1.00
H3       0.43803    0.81497    0.84571   1.00
H3       0.55300    0.77642    0.83756   1.00
H3       0.48287    0.87432    0.86702   1.00
H3       0.55575    0.84992    0.86181   1.00
N1       0.50857    0.67612    0.69199   1.00
C6       0.47154    0.67416    0.68011   1.00
C6       0.53073    0.67586    0.65991   1.00
C6       0.46995    0.67315    0.63996   1.00
C6       0.50759    0.67424    0.62711   1.00
H3       0.44700    0.67380    0.69942   1.00
H3       0.56197    0.67712    0.66016   1.00
H3       0.44425    0.67180    0.62205   1.00
H3       0.51713    0.67386    0.59718   1.00
C4       0.97915    0.74988    0.75016   1.00
C4       1.02085    0.75012    0.74984   1.00
C3a      0.95746    0.71534    0.75868   1.00
C3       1.04232    0.75229    0.78490   1.00
C3       0.95768    0.78408    0.74212   1.00
C3a      1.04254    0.74830    0.71431   1.00
C2       0.89488    0.75006    0.75005   1.00
C2       1.10512    0.75007    0.75005   1.00
C3       0.91595    0.71596    0.75841   1.00
C3       1.08363    0.75215    0.78496   1.00
C3       0.91637    0.78409    0.74196   1.00
C3       1.08405    0.74823    0.71498   1.00
C5       0.97772    0.67713    0.76758   1.00
H1       1.02691    0.75371    0.81246   1.00
H1       0.89979    0.68959    0.76471   1.00
H1       1.09901    0.75363    0.81250   1.00
H1       0.90099    0.81088    0.73542   1.00
H1       1.10021    0.74664    0.68791   1.00
C5       1.02228    0.74579    0.67515   1.00
H1       0.97309    0.81087    0.73552   1.00
H2       1.04256    0.73355    0.65304   1.00
H2       0.99731    0.72520    0.67677   1.00
H2       0.95744    0.65242    0.76225   1.00
H2       1.00269    0.67273    0.74740   1.00
N1       1.00857    0.78421    0.66251   1.00
C6       1.03073    0.81484    0.65300   1.00
C6       0.97154    0.79501    0.65721   1.00
C6       1.00759    0.84578    0.64198   1.00
C6       0.96995    0.83316    0.64465   1.00
H3       1.06197    0.81497    0.65429   1.00
H3       0.94700    0.77642    0.66244   1.00
H3       1.01713    0.87432    0.63298   1.00
H3       0.94425    0.84992    0.63819   1.00
N1       0.99143    0.67612    0.80801   1.00
C6       1.02846    0.67416    0.81989   1.00
C6       0.96927    0.67586    0.84009   1.00
C6       1.03005    0.67315    0.86004   1.00
C6       0.99241    0.67424    0.87289   1.00
H3       1.05300    0.67380    0.80058   1.00
H3       0.93803    0.67712    0.83984   1.00
H3       1.05575    0.67180    0.87795   1.00
H3       0.98287    0.67386    0.90282   1.00
C4       0.74984    0.52085    0.74988   1.00
C4       0.75016    0.47915    0.75012   1.00
C3a      0.74132    0.54254    0.71534   1.00
C3       0.71510    0.45768    0.75229   1.00
C3       0.75788    0.54232    0.78408   1.00
C3a      0.78569    0.45746    0.74830   1.00
C2       0.74995    0.60512    0.75006   1.00
C2       0.74995    0.39488    0.75007   1.00
C3       0.74159    0.58405    0.71596   1.00
C3       0.71504    0.41637    0.75215   1.00
C3       0.75804    0.58363    0.78409   1.00
C3       0.78502    0.41595    0.74823   1.00
C5       0.73242    0.52228    0.67713   1.00
H1       0.68754    0.47309    0.75371   1.00
H1       0.73529    0.60021    0.68959   1.00
H1       0.68750    0.40099    0.75363   1.00
H1       0.76458    0.59901    0.81088   1.00
H1       0.81209    0.39979    0.74664   1.00
C5       0.82485    0.47772    0.74579   1.00
H1       0.76448    0.52691    0.81087   1.00
H2       0.84696    0.45744    0.73355   1.00
H2       0.82323    0.50269    0.72520   1.00
H2       0.73775    0.54256    0.65242   1.00
H2       0.75260    0.49731    0.67273   1.00
N1       0.83749    0.49143    0.78421   1.00
C6       0.84700    0.46927    0.81484   1.00
C6       0.84279    0.52846    0.79501   1.00
C6       0.85802    0.49241    0.84578   1.00
C6       0.85535    0.53005    0.83316   1.00
H3       0.84571    0.43803    0.81497   1.00
H3       0.83756    0.55300    0.77642   1.00
H3       0.86702    0.48287    0.87432   1.00
H3       0.86181    0.55575    0.84992   1.00
N1       0.69199    0.50857    0.67612   1.00
C6       0.68011    0.47154    0.67416   1.00
C6       0.65991    0.53073    0.67586   1.00
C6       0.63996    0.46995    0.67315   1.00
C6       0.62711    0.50759    0.67424   1.00
H3       0.69942    0.44700    0.67380   1.00
H3       0.66016    0.56197    0.67712   1.00
H3       0.62205    0.44425    0.67180   1.00
H3       0.59718    0.51713    0.67386   1.00
C4       0.74988    0.74984    0.52085   1.00
C4       0.75012    0.75016    0.47915   1.00
C3a      0.71534    0.74132    0.54254   1.00
C3       0.75229    0.71510    0.45768   1.00
C3       0.78408    0.75788    0.54232   1.00
C3a      0.74830    0.78569    0.45746   1.00
C2       0.75006    0.74995    0.60512   1.00
C2       0.75007    0.74995    0.39488   1.00
C3       0.71596    0.74159    0.58405   1.00
C3       0.75215    0.71504    0.41637   1.00
C3       0.78409    0.75804    0.58363   1.00
C3       0.74823    0.78502    0.41595   1.00
C5       0.67713    0.73242    0.52228   1.00
H1       0.75371    0.68754    0.47309   1.00
H1       0.68959    0.73529    0.60021   1.00
H1       0.75363    0.68750    0.40099   1.00
H1       0.81088    0.76458    0.59901   1.00
H1       0.74664    0.81209    0.39979   1.00
C5       0.74579    0.82485    0.47772   1.00
H1       0.81087    0.76448    0.52691   1.00
H2       0.73355    0.84696    0.45744   1.00
H2       0.72520    0.82323    0.50269   1.00
H2       0.65242    0.73775    0.54256   1.00
H2       0.67273    0.75260    0.49731   1.00
N1       0.78421    0.83749    0.49143   1.00
C6       0.81484    0.84700    0.46927   1.00
C6       0.79501    0.84279    0.52846   1.00
C6       0.84578    0.85802    0.49241   1.00
C6       0.83316    0.85535    0.53005   1.00
H3       0.81497    0.84571    0.43803   1.00
H3       0.77642    0.83756    0.55300   1.00
H3       0.87432    0.86702    0.48287   1.00
H3       0.84992    0.86181    0.55575   1.00
N1       0.67612    0.69199    0.50857   1.00
C6       0.67416    0.68011    0.47154   1.00
C6       0.67586    0.65991    0.53073   1.00
C6       0.67315    0.63996    0.46995   1.00
C6       0.67424    0.62711    0.50759   1.00
H3       0.67380    0.69942    0.44700   1.00
H3       0.67712    0.66016    0.56197   1.00
H3       0.67180    0.62205    0.44425   1.00
H3       0.67386    0.59718    0.51713   1.00
C4       0.24988    0.25016    0.97915   1.00
C4       0.25012    0.24984    1.02085   1.00
C3a      0.21534    0.25868    0.95746   1.00
C3       0.25229    0.28490    1.04232   1.00
C3       0.28408    0.24212    0.95768   1.00
C3a      0.24830    0.21431    1.04254   1.00
C2       0.25006    0.25005    0.89488   1.00
C2       0.25007    0.25005    1.10512   1.00
C3       0.21596    0.25841    0.91595   1.00
C3       0.25215    0.28496    1.08363   1.00
C3       0.28409    0.24196    0.91637   1.00
C3       0.24823    0.21498    1.08405   1.00
C5       0.17713    0.26758    0.97772   1.00
H1       0.25371    0.31246    1.02691   1.00
H1       0.18959    0.26471    0.89979   1.00
H1       0.25363    0.31250    1.09901   1.00
H1       0.31088    0.23542    0.90099   1.00
H1       0.24664    0.18791    1.10021   1.00
C5       0.24579    0.17515    1.02228   1.00
H1       0.31087    0.23552    0.97309   1.00
H2       0.23355    0.15304    1.04256   1.00
H2       0.22520    0.17677    0.99731   1.00
H2       0.15242    0.26225    0.95744   1.00
H2       0.17273    0.24740    1.00269   1.00
N1       0.28421    0.16251    1.00857   1.00
C6       0.31484    0.15300    1.03073   1.00
C6       0.29501    0.15721    0.97154   1.00
C6       0.34578    0.14198    1.00759   1.00
C6       0.33316    0.14465    0.96995   1.00
H3       0.31497    0.15429    1.06197   1.00
H3       0.27642    0.16244    0.94700   1.00
H3       0.37432    0.13298    1.01713   1.00
H3       0.34992    0.13819    0.94425   1.00
N1       0.17612    0.30801    0.99143   1.00
C6       0.17416    0.31989    1.02846   1.00
C6       0.17586    0.34009    0.96927   1.00
C6       0.17315    0.36004    1.03005   1.00
C6       0.17424    0.37289    0.99241   1.00
H3       0.17380    0.30058    1.05300   1.00
H3       0.17712    0.33984    0.93803   1.00
H3       0.17180    0.37795    1.05575   1.00
H3       0.17386    0.40282    0.98287   1.00
C4       0.25016    0.47915    0.74988   1.00
C4       0.24984    0.52085    0.75012   1.00
C3a      0.25868    0.45746    0.71534   1.00
C3       0.28490    0.54232    0.75229   1.00
C3       0.24212    0.45768    0.78408   1.00
C3a      0.21431    0.54254    0.74830   1.00
C2       0.25005    0.39488    0.75006   1.00
C2       0.25005    0.60512    0.75007   1.00
C3       0.25841    0.41595    0.71596   1.00
C3       0.28496    0.58363    0.75215   1.00
C3       0.24196    0.41637    0.78409   1.00
C3       0.21498    0.58405    0.74823   1.00
C5       0.26758    0.47772    0.67713   1.00
H1       0.31246    0.52691    0.75371   1.00
H1       0.26471    0.39979    0.68959   1.00
H1       0.31250    0.59901    0.75363   1.00
H1       0.23542    0.40099    0.81088   1.00
H1       0.18791    0.60021    0.74664   1.00
C5       0.17515    0.52228    0.74579   1.00
H1       0.23552    0.47309    0.81087   1.00
H2       0.15304    0.54256    0.73355   1.00
H2       0.17677    0.49731    0.72520   1.00
H2       0.26225    0.45744    0.65242   1.00
H2       0.24740    0.50269    0.67273   1.00
N1       0.16251    0.50857    0.78421   1.00
C6       0.15300    0.53073    0.81484   1.00
C6       0.15721    0.47154    0.79501   1.00
C6       0.14198    0.50759    0.84578   1.00
C6       0.14465    0.46995    0.83316   1.00
H3       0.15429    0.56197    0.81497   1.00
H3       0.16244    0.44700    0.77642   1.00
H3       0.13298    0.51713    0.87432   1.00
H3       0.13819    0.44425    0.84992   1.00
N1       0.30801    0.49143    0.67612   1.00
C6       0.31989    0.52846    0.67416   1.00
C6       0.34009    0.46927    0.67586   1.00
C6       0.36004    0.53005    0.67315   1.00
C6       0.37289    0.49241    0.67424   1.00
H3       0.30058    0.55300    0.67380   1.00
H3       0.33984    0.43803    0.67712   1.00
H3       0.37795    0.55575    0.67180   1.00
H3       0.40282    0.48287    0.67386   1.00
C4       0.02085    0.24988    0.74984   1.00
C4       -0.02085   0.25012    0.75016   1.00
C3a      0.04254    0.21534    0.74132   1.00
C3       -0.04232   0.25229    0.71510   1.00
C3       0.04232    0.28408    0.75788   1.00
C3a      -0.04254   0.24830    0.78569   1.00
C2       0.10512    0.25006    0.74995   1.00
C2       -0.10512   0.25007    0.74995   1.00
C3       0.08405    0.21596    0.74159   1.00
C3       -0.08363   0.25215    0.71504   1.00
C3       0.08363    0.28409    0.75804   1.00
C3       -0.08405   0.24823    0.78502   1.00
C5       0.02228    0.17713    0.73242   1.00
H1       -0.02691   0.25371    0.68754   1.00
H1       0.10021    0.18959    0.73529   1.00
H1       -0.09901   0.25363    0.68750   1.00
H1       0.09901    0.31088    0.76458   1.00
H1       -0.10021   0.24664    0.81209   1.00
C5       -0.02228   0.24579    0.82485   1.00
H1       0.02691    0.31087    0.76448   1.00
H2       -0.04256   0.23355    0.84696   1.00
H2       0.00269    0.22520    0.82323   1.00
H2       0.04256    0.15242    0.73775   1.00
H2       -0.00269   0.17273    0.75260   1.00
N1       -0.00857   0.28421    0.83749   1.00
C6       -0.03073   0.31484    0.84700   1.00
C6       0.02846    0.29501    0.84279   1.00
C6       -0.00759   0.34578    0.85802   1.00
C6       0.03005    0.33316    0.85535   1.00
H3       -0.06197   0.31497    0.84571   1.00
H3       0.05300    0.27642    0.83756   1.00
H3       -0.01713   0.37432    0.86702   1.00
H3       0.05575    0.34992    0.86181   1.00
N1       0.00857    0.17612    0.69199   1.00
C6       -0.02846   0.17416    0.68011   1.00
C6       0.03073    0.17586    0.65991   1.00
C6       -0.03005   0.17315    0.63996   1.00
C6       0.00759    0.17424    0.62711   1.00
H3       -0.05300   0.17380    0.69942   1.00
H3       0.06197    0.17712    0.66016   1.00
H3       -0.05575   0.17180    0.62205   1.00
H3       0.01713    0.17386    0.59718   1.00
C4       0.47915    0.24988    0.75016   1.00
C4       0.52085    0.25012    0.74984   1.00
C3a      0.45746    0.21534    0.75868   1.00
C3       0.54232    0.25229    0.78490   1.00
C3       0.45768    0.28408    0.74212   1.00
C3a      0.54254    0.24830    0.71431   1.00
C2       0.39488    0.25006    0.75005   1.00
C2       0.60512    0.25007    0.75005   1.00
C3       0.41595    0.21596    0.75841   1.00
C3       0.58363    0.25215    0.78496   1.00
C3       0.41637    0.28409    0.74196   1.00
C3       0.58405    0.24823    0.71498   1.00
C5       0.47772    0.17713    0.76758   1.00
H1       0.52691    0.25371    0.81246   1.00
H1       0.39979    0.18959    0.76471   1.00
H1       0.59901    0.25363    0.81250   1.00
H1       0.40099    0.31088    0.73542   1.00
H1       0.60021    0.24664    0.68791   1.00
C5       0.52228    0.24579    0.67515   1.00
H1       0.47309    0.31087    0.73552   1.00
H2       0.54256    0.23355    0.65304   1.00
H2       0.49731    0.22520    0.67677   1.00
H2       0.45744    0.15242    0.76225   1.00
H2       0.50269    0.17273    0.74740   1.00
N1       0.50857    0.28421    0.66251   1.00
C6       0.53073    0.31484    0.65300   1.00
C6       0.47154    0.29501    0.65721   1.00
C6       0.50759    0.34578    0.64198   1.00
C6       0.46995    0.33316    0.64465   1.00
H3       0.56197    0.31497    0.65429   1.00
H3       0.44700    0.27642    0.66244   1.00
H3       0.51713    0.37432    0.63298   1.00
H3       0.44425    0.34992    0.63819   1.00
N1       0.49143    0.17612    0.80801   1.00
C6       0.52846    0.17416    0.81989   1.00
C6       0.46927    0.17586    0.84009   1.00
C6       0.53005    0.17315    0.86004   1.00
C6       0.49241    0.17424    0.87289   1.00
H3       0.55300    0.17380    0.80058   1.00
H3       0.43803    0.17712    0.83984   1.00
H3       0.55575    0.17180    0.87795   1.00
H3       0.48287    0.17386    0.90282   1.00
C4       0.24984    0.02085    0.74988   1.00
C4       0.25016    -0.02085   0.75012   1.00
C3a      0.24132    0.04254    0.71534   1.00
C3       0.21510    -0.04232   0.75229   1.00
C3       0.25788    0.04232    0.78408   1.00
C3a      0.28569    -0.04254   0.74830   1.00
C2       0.24995    0.10512    0.75006   1.00
C2       0.24995    -0.10512   0.75007   1.00
C3       0.24159    0.08405    0.71596   1.00
C3       0.21504    -0.08363   0.75215   1.00
C3       0.25804    0.08363    0.78409   1.00
C3       0.28502    -0.08405   0.74823   1.00
C5       0.23242    0.02228    0.67713   1.00
H1       0.18754    -0.02691   0.75371   1.00
H1       0.23529    0.10021    0.68959   1.00
H1       0.18750    -0.09901   0.75363   1.00
H1       0.26458    0.09901    0.81088   1.00
H1       0.31209    -0.10021   0.74664   1.00
C5       0.32485    -0.02228   0.74579   1.00
H1       0.26448    0.02691    0.81087   1.00
H2       0.34696    -0.04256   0.73355   1.00
H2       0.32323    0.00269    0.72520   1.00
H2       0.23775    0.04256    0.65242   1.00
H2       0.25260    -0.00269   0.67273   1.00
N1       0.33749    -0.00857   0.78421   1.00
C6       0.34700    -0.03073   0.81484   1.00
C6       0.34279    0.02846    0.79501   1.00
C6       0.35802    -0.00759   0.84578   1.00
C6       0.35535    0.03005    0.83316   1.00
H3       0.34571    -0.06197   0.81497   1.00
H3       0.33756    0.05300    0.77642   1.00
H3       0.36702    -0.01713   0.87432   1.00
H3       0.36181    0.05575    0.84992   1.00
N1       0.19199    0.00857    0.67612   1.00
C6       0.18011    -0.02846   0.67416   1.00
C6       0.15991    0.03073    0.67586   1.00
C6       0.13996    -0.03005   0.67315   1.00
C6       0.12711    0.00759    0.67424   1.00
H3       0.19942    -0.05300   0.67380   1.00
H3       0.16016    0.06197    0.67712   1.00
H3       0.12205    -0.05575   0.67180   1.00
H3       0.09718    0.01713    0.67386   1.00
C4       0.24988    0.24984    0.52085   1.00
C4       0.25012    0.25016    0.47915   1.00
C3a      0.21534    0.24132    0.54254   1.00
C3       0.25229    0.21510    0.45768   1.00
C3       0.28408    0.25788    0.54232   1.00
C3a      0.24830    0.28569    0.45746   1.00
C2       0.25006    0.24995    0.60512   1.00
C2       0.25007    0.24995    0.39488   1.00
C3       0.21596    0.24159    0.58405   1.00
C3       0.25215    0.21504    0.41637   1.00
C3       0.28409    0.25804    0.58363   1.00
C3       0.24823    0.28502    0.41595   1.00
C5       0.17713    0.23242    0.52228   1.00
H1       0.25371    0.18754    0.47309   1.00
H1       0.18959    0.23529    0.60021   1.00
H1       0.25363    0.18750    0.40099   1.00
H1       0.31088    0.26458    0.59901   1.00
H1       0.24664    0.31209    0.39979   1.00
C5       0.24579    0.32485    0.47772   1.00
H1       0.31087    0.26448    0.52691   1.00
H2       0.23355    0.34696    0.45744   1.00
H2       0.22520    0.32323    0.50269   1.00
H2       0.15242    0.23775    0.54256   1.00
H2       0.17273    0.25260    0.49731   1.00
N1       0.28421    0.33749    0.49143   1.00
C6       0.31484    0.34700    0.46927   1.00
C6       0.29501    0.34279    0.52846   1.00
C6       0.34578    0.35802    0.49241   1.00
C6       0.33316    0.35535    0.53005   1.00
H3       0.31497    0.34571    0.43803   1.00
H3       0.27642    0.33756    0.55300   1.00
H3       0.37432    0.36702    0.48287   1.00
H3       0.34992    0.36181    0.55575   1.00
N1       0.17612    0.19199    0.50857   1.00
C6       0.17416    0.18011    0.47154   1.00
C6       0.17586    0.15991    0.53073   1.00
C6       0.17315    0.13996    0.46995   1.00
C6       0.17424    0.12711    0.50759   1.00
H3       0.17380    0.19942    0.44700   1.00
H3       0.17712    0.16016    0.56197   1.00
H3       0.17180    0.12205    0.44425   1.00
H3       0.17386    0.09718    0.51713   1.00
C4       0.24988    0.75016    0.47915   1.00
C4       0.25012    0.74984    0.52085   1.00
C3a      0.21534    0.75868    0.45746   1.00
C3       0.25229    0.78490    0.54232   1.00
C3       0.28408    0.74212    0.45768   1.00
C3a      0.24830    0.71431    0.54254   1.00
C2       0.25006    0.75005    0.39488   1.00
C2       0.25007    0.75005    0.60512   1.00
C3       0.21596    0.75841    0.41595   1.00
C3       0.25215    0.78496    0.58363   1.00
C3       0.28409    0.74196    0.41637   1.00
C3       0.24823    0.71498    0.58405   1.00
C5       0.17713    0.76758    0.47772   1.00
H1       0.25371    0.81246    0.52691   1.00
H1       0.18959    0.76471    0.39979   1.00
H1       0.25363    0.81250    0.59901   1.00
H1       0.31088    0.73542    0.40099   1.00
H1       0.24664    0.68791    0.60021   1.00
C5       0.24579    0.67515    0.52228   1.00
H1       0.31087    0.73552    0.47309   1.00
H2       0.23355    0.65304    0.54256   1.00
H2       0.22520    0.67677    0.49731   1.00
H2       0.15242    0.76225    0.45744   1.00
H2       0.17273    0.74740    0.50269   1.00
N1       0.28421    0.66251    0.50857   1.00
C6       0.31484    0.65300    0.53073   1.00
C6       0.29501    0.65721    0.47154   1.00
C6       0.34578    0.64198    0.50759   1.00
C6       0.33316    0.64465    0.46995   1.00
H3       0.31497    0.65429    0.56197   1.00
H3       0.27642    0.66244    0.44700   1.00
H3       0.37432    0.63298    0.51713   1.00
H3       0.34992    0.63819    0.44425   1.00
N1       0.17612    0.80801    0.49143   1.00
C6       0.17416    0.81989    0.52846   1.00
C6       0.17586    0.84009    0.46927   1.00
C6       0.17315    0.86004    0.53005   1.00
C6       0.17424    0.87289    0.49241   1.00
H3       0.17380    0.80058    0.55300   1.00
H3       0.17712    0.83984    0.43803   1.00
H3       0.17180    0.87795    0.55575   1.00
H3       0.17386    0.90282    0.48287   1.00
C4       0.25016    0.97915    0.24988   1.00
C4       0.24984    1.02085    0.25012   1.00
C3a      0.25868    0.95746    0.21534   1.00
C3       0.28490    1.04232    0.25229   1.00
C3       0.24212    0.95768    0.28408   1.00
C3a      0.21431    1.04254    0.24830   1.00
C2       0.25005    0.89488    0.25006   1.00
C2       0.25005    1.10512    0.25007   1.00
C3       0.25841    0.91595    0.21596   1.00
C3       0.28496    1.08363    0.25215   1.00
C3       0.24196    0.91637    0.28409   1.00
C3       0.21498    1.08405    0.24823   1.00
C5       0.26758    0.97772    0.17713   1.00
H1       0.31246    1.02691    0.25371   1.00
H1       0.26471    0.89979    0.18959   1.00
H1       0.31250    1.09901    0.25363   1.00
H1       0.23542    0.90099    0.31088   1.00
H1       0.18791    1.10021    0.24664   1.00
C5       0.17515    1.02228    0.24579   1.00
H1       0.23552    0.97309    0.31087   1.00
H2       0.15304    1.04256    0.23355   1.00
H2       0.17677    0.99731    0.22520   1.00
H2       0.26225    0.95744    0.15242   1.00
H2       0.24740    1.00269    0.17273   1.00
N1       0.16251    1.00857    0.28421   1.00
C6       0.15300    1.03073    0.31484   1.00
C6       0.15721    0.97154    0.29501   1.00
C6       0.14198    1.00759    0.34578   1.00
C6       0.14465    0.96995    0.33316   1.00
H3       0.15429    1.06197    0.31497   1.00
H3       0.16244    0.94700    0.27642   1.00
H3       0.13298    1.01713    0.37432   1.00
H3       0.13819    0.94425    0.34992   1.00
N1       0.30801    0.99143    0.17612   1.00
C6       0.31989    1.02846    0.17416   1.00
C6       0.34009    0.96927    0.17586   1.00
C6       0.36004    1.03005    0.17315   1.00
C6       0.37289    0.99241    0.17424   1.00
H3       0.30058    1.05300    0.17380   1.00
H3       0.33984    0.93803    0.17712   1.00
H3       0.37795    1.05575    0.17180   1.00
H3       0.40282    0.98287    0.17386   1.00
C4       0.02085    0.74988    0.24984   1.00
C4       -0.02085   0.75012    0.25016   1.00
C3a      0.04254    0.71534    0.24132   1.00
C3       -0.04232   0.75229    0.21510   1.00
C3       0.04232    0.78408    0.25788   1.00
C3a      -0.04254   0.74830    0.28569   1.00
C2       0.10512    0.75006    0.24995   1.00
C2       -0.10512   0.75007    0.24995   1.00
C3       0.08405    0.71596    0.24159   1.00
C3       -0.08363   0.75215    0.21504   1.00
C3       0.08363    0.78409    0.25804   1.00
C3       -0.08405   0.74823    0.28502   1.00
C5       0.02228    0.67713    0.23242   1.00
H1       -0.02691   0.75371    0.18754   1.00
H1       0.10021    0.68959    0.23529   1.00
H1       -0.09901   0.75363    0.18750   1.00
H1       0.09901    0.81088    0.26458   1.00
H1       -0.10021   0.74664    0.31209   1.00
C5       -0.02228   0.74579    0.32485   1.00
H1       0.02691    0.81087    0.26448   1.00
H2       -0.04256   0.73355    0.34696   1.00
H2       0.00269    0.72520    0.32323   1.00
H2       0.04256    0.65242    0.23775   1.00
H2       -0.00269   0.67273    0.25260   1.00
N1       -0.00857   0.78421    0.33749   1.00
C6       -0.03073   0.81484    0.34700   1.00
C6       0.02846    0.79501    0.34279   1.00
C6       -0.00759   0.84578    0.35802   1.00
C6       0.03005    0.83316    0.35535   1.00
H3       -0.06197   0.81497    0.34571   1.00
H3       0.05300    0.77642    0.33756   1.00
H3       -0.01713   0.87432    0.36702   1.00
H3       0.05575    0.84992    0.36181   1.00
N1       0.00857    0.67612    0.19199   1.00
C6       -0.02846   0.67416    0.18011   1.00
C6       0.03073    0.67586    0.15991   1.00
C6       -0.03005   0.67315    0.13996   1.00
C6       0.00759    0.67424    0.12711   1.00
H3       -0.05300   0.67380    0.19942   1.00
H3       0.06197    0.67712    0.16016   1.00
H3       -0.05575   0.67180    0.12205   1.00
H3       0.01713    0.67386    0.09718   1.00
C4       0.47915    0.74988    0.25016   1.00
C4       0.52085    0.75012    0.24984   1.00
C3a      0.45746    0.71534    0.25868   1.00
C3       0.54232    0.75229    0.28490   1.00
C3       0.45768    0.78408    0.24212   1.00
C3a      0.54254    0.74830    0.21431   1.00
C2       0.39488    0.75006    0.25005   1.00
C2       0.60512    0.75007    0.25005   1.00
C3       0.41595    0.71596    0.25841   1.00
C3       0.58363    0.75215    0.28496   1.00
C3       0.41637    0.78409    0.24196   1.00
C3       0.58405    0.74823    0.21498   1.00
C5       0.47772    0.67713    0.26758   1.00
H1       0.52691    0.75371    0.31246   1.00
H1       0.39979    0.68959    0.26471   1.00
H1       0.59901    0.75363    0.31250   1.00
H1       0.40099    0.81088    0.23542   1.00
H1       0.60021    0.74664    0.18791   1.00
C5       0.52228    0.74579    0.17515   1.00
H1       0.47309    0.81087    0.23552   1.00
H2       0.54256    0.73355    0.15304   1.00
H2       0.49731    0.72520    0.17677   1.00
H2       0.45744    0.65242    0.26225   1.00
H2       0.50269    0.67273    0.24740   1.00
N1       0.50857    0.78421    0.16251   1.00
C6       0.53073    0.81484    0.15300   1.00
C6       0.47154    0.79501    0.15721   1.00
C6       0.50759    0.84578    0.14198   1.00
C6       0.46995    0.83316    0.14465   1.00
H3       0.56197    0.81497    0.15429   1.00
H3       0.44700    0.77642    0.16244   1.00
H3       0.51713    0.87432    0.13298   1.00
H3       0.44425    0.84992    0.13819   1.00
N1       0.49143    0.67612    0.30801   1.00
C6       0.52846    0.67416    0.31989   1.00
C6       0.46927    0.67586    0.34009   1.00
C6       0.53005    0.67315    0.36004   1.00
C6       0.49241    0.67424    0.37289   1.00
H3       0.55300    0.67380    0.30058   1.00
H3       0.43803    0.67712    0.33984   1.00
H3       0.55575    0.67180    0.37795   1.00
H3       0.48287    0.67386    0.40282   1.00
C4       0.24984    0.52085    0.24988   1.00
C4       0.25016    0.47915    0.25012   1.00
C3a      0.24132    0.54254    0.21534   1.00
C3       0.21510    0.45768    0.25229   1.00
C3       0.25788    0.54232    0.28408   1.00
C3a      0.28569    0.45746    0.24830   1.00
C2       0.24995    0.60512    0.25006   1.00
C2       0.24995    0.39488    0.25007   1.00
C3       0.24159    0.58405    0.21596   1.00
C3       0.21504    0.41637    0.25215   1.00
C3       0.25804    0.58363    0.28409   1.00
C3       0.28502    0.41595    0.24823   1.00
C5       0.23242    0.52228    0.17713   1.00
H1       0.18754    0.47309    0.25371   1.00
H1       0.23529    0.60021    0.18959   1.00
H1       0.18750    0.40099    0.25363   1.00
H1       0.26458    0.59901    0.31088   1.00
H1       0.31209    0.39979    0.24664   1.00
C5       0.32485    0.47772    0.24579   1.00
H1       0.26448    0.52691    0.31087   1.00
H2       0.34696    0.45744    0.23355   1.00
H2       0.32323    0.50269    0.22520   1.00
H2       0.23775    0.54256    0.15242   1.00
H2       0.25260    0.49731    0.17273   1.00
N1       0.33749    0.49143    0.28421   1.00
C6       0.34700    0.46927    0.31484   1.00
C6       0.34279    0.52846    0.29501   1.00
C6       0.35802    0.49241    0.34578   1.00
C6       0.35535    0.53005    0.33316   1.00
H3       0.34571    0.43803    0.31497   1.00
H3       0.33756    0.55300    0.27642   1.00
H3       0.36702    0.48287    0.37432   1.00
H3       0.36181    0.55575    0.34992   1.00
N1       0.19199    0.50857    0.17612   1.00
C6       0.18011    0.47154    0.17416   1.00
C6       0.15991    0.53073    0.17586   1.00
C6       0.13996    0.46995    0.17315   1.00
C6       0.12711    0.50759    0.17424   1.00
H3       0.19942    0.44700    0.17380   1.00
H3       0.16016    0.56197    0.17712   1.00
H3       0.12205    0.44425    0.17180   1.00
H3       0.09718    0.51713    0.17386   1.00
C4       0.24988    0.74984    0.02085   1.00
C4       0.25012    0.75016    -0.02085   1.00
C3a      0.21534    0.74132    0.04254   1.00
C3       0.25229    0.71510    -0.04232   1.00
C3       0.28408    0.75788    0.04232   1.00
C3a      0.24830    0.78569    -0.04254   1.00
C2       0.25006    0.74995    0.10512   1.00
C2       0.25007    0.74995    -0.10512   1.00
C3       0.21596    0.74159    0.08405   1.00
C3       0.25215    0.71504    -0.08363   1.00
C3       0.28409    0.75804    0.08363   1.00
C3       0.24823    0.78502    -0.08405   1.00
C5       0.17713    0.73242    0.02228   1.00
H1       0.25371    0.68754    -0.02691   1.00
H1       0.18959    0.73529    0.10021   1.00
H1       0.25363    0.68750    -0.09901   1.00
H1       0.31088    0.76458    0.09901   1.00
H1       0.24664    0.81209    -0.10021   1.00
C5       0.24579    0.82485    -0.02228   1.00
H1       0.31087    0.76448    0.02691   1.00
H2       0.23355    0.84696    -0.04256   1.00
H2       0.22520    0.82323    0.00269   1.00
H2       0.15242    0.73775    0.04256   1.00
H2       0.17273    0.75260    -0.00269   1.00
N1       0.28421    0.83749    -0.00857   1.00
C6       0.31484    0.84700    -0.03073   1.00
C6       0.29501    0.84279    0.02846   1.00
C6       0.34578    0.85802    -0.00759   1.00
C6       0.33316    0.85535    0.03005   1.00
H3       0.31497    0.84571    -0.06197   1.00
H3       0.27642    0.83756    0.05300   1.00
H3       0.37432    0.86702    -0.01713   1.00
H3       0.34992    0.86181    0.05575   1.00
N1       0.17612    0.69199    0.00857   1.00
C6       0.17416    0.68011    -0.02846   1.00
C6       0.17586    0.65991    0.03073   1.00
C6       0.17315    0.63996    -0.03005   1.00
C6       0.17424    0.62711    0.00759   1.00
H3       0.17380    0.69942    -0.05300   1.00
H3       0.17712    0.66016    0.06197   1.00
H3       0.17180    0.62205    -0.05575   1.00
H3       0.17386    0.59718    0.01713   1.00
C4       0.74988    0.25016    0.47915   1.00
C4       0.75012    0.24984    0.52085   1.00
C3a      0.71534    0.25868    0.45746   1.00
C3       0.75229    0.28490    0.54232   1.00
C3       0.78408    0.24212    0.45768   1.00
C3a      0.74830    0.21431    0.54254   1.00
C2       0.75006    0.25005    0.39488   1.00
C2       0.75007    0.25005    0.60512   1.00
C3       0.71596    0.25841    0.41595   1.00
C3       0.75215    0.28496    0.58363   1.00
C3       0.78409    0.24196    0.41637   1.00
C3       0.74823    0.21498    0.58405   1.00
C5       0.67713    0.26758    0.47772   1.00
H1       0.75371    0.31246    0.52691   1.00
H1       0.68959    0.26471    0.39979   1.00
H1       0.75363    0.31250    0.59901   1.00
H1       0.81088    0.23542    0.40099   1.00
H1       0.74664    0.18791    0.60021   1.00
C5       0.74579    0.17515    0.52228   1.00
H1       0.81087    0.23552    0.47309   1.00
H2       0.73355    0.15304    0.54256   1.00
H2       0.72520    0.17677    0.49731   1.00
H2       0.65242    0.26225    0.45744   1.00
H2       0.67273    0.24740    0.50269   1.00
N1       0.78421    0.16251    0.50857   1.00
C6       0.81484    0.15300    0.53073   1.00
C6       0.79501    0.15721    0.47154   1.00
C6       0.84578    0.14198    0.50759   1.00
C6       0.83316    0.14465    0.46995   1.00
H3       0.81497    0.15429    0.56197   1.00
H3       0.77642    0.16244    0.44700   1.00
H3       0.87432    0.13298    0.51713   1.00
H3       0.84992    0.13819    0.44425   1.00
N1       0.67612    0.30801    0.49143   1.00
C6       0.67416    0.31989    0.52846   1.00
C6       0.67586    0.34009    0.46927   1.00
C6       0.67315    0.36004    0.53005   1.00
C6       0.67424    0.37289    0.49241   1.00
H3       0.67380    0.30058    0.55300   1.00
H3       0.67712    0.33984    0.43803   1.00
H3       0.67180    0.37795    0.55575   1.00
H3       0.67386    0.40282    0.48287   1.00
C4       0.75016    0.47915    0.24988   1.00
C4       0.74984    0.52085    0.25012   1.00
C3a      0.75868    0.45746    0.21534   1.00
C3       0.78490    0.54232    0.25229   1.00
C3       0.74212    0.45768    0.28408   1.00
C3a      0.71431    0.54254    0.24830   1.00
C2       0.75005    0.39488    0.25006   1.00
C2       0.75005    0.60512    0.25007   1.00
C3       0.75841    0.41595    0.21596   1.00
C3       0.78496    0.58363    0.25215   1.00
C3       0.74196    0.41637    0.28409   1.00
C3       0.71498    0.58405    0.24823   1.00
C5       0.76758    0.47772    0.17713   1.00
H1       0.81246    0.52691    0.25371   1.00
H1       0.76471    0.39979    0.18959   1.00
H1       0.81250    0.59901    0.25363   1.00
H1       0.73542    0.40099    0.31088   1.00
H1       0.68791    0.60021    0.24664   1.00
C5       0.67515    0.52228    0.24579   1.00
H1       0.73552    0.47309    0.31087   1.00
H2       0.65304    0.54256    0.23355   1.00
H2       0.67677    0.49731    0.22520   1.00
H2       0.76225    0.45744    0.15242   1.00
H2       0.74740    0.50269    0.17273   1.00
N1       0.66251    0.50857    0.28421   1.00
C6       0.65300    0.53073    0.31484   1.00
C6       0.65721    0.47154    0.29501   1.00
C6       0.64198    0.50759    0.34578   1.00
C6       0.64465    0.46995    0.33316   1.00
H3       0.65429    0.56197    0.31497   1.00
H3       0.66244    0.44700    0.27642   1.00
H3       0.63298    0.51713    0.37432   1.00
H3       0.63819    0.44425    0.34992   1.00
N1       0.80801    0.49143    0.17612   1.00
C6       0.81989    0.52846    0.17416   1.00
C6       0.84009    0.46927    0.17586   1.00
C6       0.86004    0.53005    0.17315   1.00
C6       0.87289    0.49241    0.17424   1.00
H3       0.80058    0.55300    0.17380   1.00
H3       0.83984    0.43803    0.17712   1.00
H3       0.87795    0.55575    0.17180   1.00
H3       0.90282    0.48287    0.17386   1.00
C4       0.52085    0.24988    0.24984   1.00
C4       0.47915    0.25012    0.25016   1.00
C3a      0.54254    0.21534    0.24132   1.00
C3       0.45768    0.25229    0.21510   1.00
C3       0.54232    0.28408    0.25788   1.00
C3a      0.45746    0.24830    0.28569   1.00
C2       0.60512    0.25006    0.24995   1.00
C2       0.39488    0.25007    0.24995   1.00
C3       0.58405    0.21596    0.24159   1.00
C3       0.41637    0.25215    0.21504   1.00
C3       0.58363    0.28409    0.25804   1.00
C3       0.41595    0.24823    0.28502   1.00
C5       0.52228    0.17713    0.23242   1.00
H1       0.47309    0.25371    0.18754   1.00
H1       0.60021    0.18959    0.23529   1.00
H1       0.40099    0.25363    0.18750   1.00
H1       0.59901    0.31088    0.26458   1.00
H1       0.39979    0.24664    0.31209   1.00
C5       0.47772    0.24579    0.32485   1.00
H1       0.52691    0.31087    0.26448   1.00
H2       0.45744    0.23355    0.34696   1.00
H2       0.50269    0.22520    0.32323   1.00
H2       0.54256    0.15242    0.23775   1.00
H2       0.49731    0.17273    0.25260   1.00
N1       0.49143    0.28421    0.33749   1.00
C6       0.46927    0.31484    0.34700   1.00
C6       0.52846    0.29501    0.34279   1.00
C6       0.49241    0.34578    0.35802   1.00
C6       0.53005    0.33316    0.35535   1.00
H3       0.43803    0.31497    0.34571   1.00
H3       0.55300    0.27642    0.33756   1.00
H3       0.48287    0.37432    0.36702   1.00
H3       0.55575    0.34992    0.36181   1.00
N1       0.50857    0.17612    0.19199   1.00
C6       0.47154    0.17416    0.18011   1.00
C6       0.53073    0.17586    0.15991   1.00
C6       0.46995    0.17315    0.13996   1.00
C6       0.50759    0.17424    0.12711   1.00
H3       0.44700    0.17380    0.19942   1.00
H3       0.56197    0.17712    0.16016   1.00
H3       0.44425    0.17180    0.12205   1.00
H3       0.51713    0.17386    0.09718   1.00
C4       0.97915    0.24988    0.25016   1.00
C4       1.02085    0.25012    0.24984   1.00
C3a      0.95746    0.21534    0.25868   1.00
C3       1.04232    0.25229    0.28490   1.00
C3       0.95768    0.28408    0.24212   1.00
C3a      1.04254    0.24830    0.21431   1.00
C2       0.89488    0.25006    0.25005   1.00
C2       1.10512    0.25007    0.25005   1.00
C3       0.91595    0.21596    0.25841   1.00
C3       1.08363    0.25215    0.28496   1.00
C3       0.91637    0.28409    0.24196   1.00
C3       1.08405    0.24823    0.21498   1.00
C5       0.97772    0.17713    0.26758   1.00
H1       1.02691    0.25371    0.31246   1.00
H1       0.89979    0.18959    0.26471   1.00
H1       1.09901    0.25363    0.31250   1.00
H1       0.90099    0.31088    0.23542   1.00
H1       1.10021    0.24664    0.18791   1.00
C5       1.02228    0.24579    0.17515   1.00
H1       0.97309    0.31087    0.23552   1.00
H2       1.04256    0.23355    0.15304   1.00
H2       0.99731    0.22520    0.17677   1.00
H2       0.95744    0.15242    0.26225   1.00
H2       1.00269    0.17273    0.24740   1.00
N1       1.00857    0.28421    0.16251   1.00
C6       1.03073    0.31484    0.15300   1.00
C6       0.97154    0.29501    0.15721   1.00
C6       1.00759    0.34578    0.14198   1.00
C6       0.96995    0.33316    0.14465   1.00
H3       1.06197    0.31497    0.15429   1.00
H3       0.94700    0.27642    0.16244   1.00
H3       1.01713    0.37432    0.13298   1.00
H3       0.94425    0.34992    0.13819   1.00
N1       0.99143    0.17612    0.30801   1.00
C6       1.02846    0.17416    0.31989   1.00
C6       0.96927    0.17586    0.34009   1.00
C6       1.03005    0.17315    0.36004   1.00
C6       0.99241    0.17424    0.37289   1.00
H3       1.05300    0.17380    0.30058   1.00
H3       0.93803    0.17712    0.33984   1.00
H3       1.05575    0.17180    0.37795   1.00
H3       0.98287    0.17386    0.40282   1.00
C4       0.74984    0.02085    0.24988   1.00
C4       0.75016    -0.02085   0.25012   1.00
C3a      0.74132    0.04254    0.21534   1.00
C3       0.71510    -0.04232   0.25229   1.00
C3       0.75788    0.04232    0.28408   1.00
C3a      0.78569    -0.04254   0.24830   1.00
C2       0.74995    0.10512    0.25006   1.00
C2       0.74995    -0.10512   0.25007   1.00
C3       0.74159    0.08405    0.21596   1.00
C3       0.71504    -0.08363   0.25215   1.00
C3       0.75804    0.08363    0.28409   1.00
C3       0.78502    -0.08405   0.24823   1.00
C5       0.73242    0.02228    0.17713   1.00
H1       0.68754    -0.02691   0.25371   1.00
H1       0.73529    0.10021    0.18959   1.00
H1       0.68750    -0.09901   0.25363   1.00
H1       0.76458    0.09901    0.31088   1.00
H1       0.81209    -0.10021   0.24664   1.00
C5       0.82485    -0.02228   0.24579   1.00
H1       0.76448    0.02691    0.31087   1.00
H2       0.84696    -0.04256   0.23355   1.00
H2       0.82323    0.00269    0.22520   1.00
H2       0.73775    0.04256    0.15242   1.00
H2       0.75260    -0.00269   0.17273   1.00
N1       0.83749    -0.00857   0.28421   1.00
C6       0.84700    -0.03073   0.31484   1.00
C6       0.84279    0.02846    0.29501   1.00
C6       0.85802    -0.00759   0.34578   1.00
C6       0.85535    0.03005    0.33316   1.00
H3       0.84571    -0.06197   0.31497   1.00
H3       0.83756    0.05300    0.27642   1.00
H3       0.86702    -0.01713   0.37432   1.00
H3       0.86181    0.05575    0.34992   1.00
N1       0.69199    0.00857    0.17612   1.00
C6       0.68011    -0.02846   0.17416   1.00
C6       0.65991    0.03073    0.17586   1.00
C6       0.63996    -0.03005   0.17315   1.00
C6       0.62711    0.00759    0.17424   1.00
H3       0.69942    -0.05300   0.17380   1.00
H3       0.66016    0.06197    0.17712   1.00
H3       0.62205    -0.05575   0.17180   1.00
H3       0.59718    0.01713    0.17386   1.00
C4       0.74988    0.24984    0.02085   1.00
C4       0.75012    0.25016    -0.02085   1.00
C3a      0.71534    0.24132    0.04254   1.00
C3       0.75229    0.21510    -0.04232   1.00
C3       0.78408    0.25788    0.04232   1.00
C3a      0.74830    0.28569    -0.04254   1.00
C2       0.75006    0.24995    0.10512   1.00
C2       0.75007    0.24995    -0.10512   1.00
C3       0.71596    0.24159    0.08405   1.00
C3       0.75215    0.21504    -0.08363   1.00
C3       0.78409    0.25804    0.08363   1.00
C3       0.74823    0.28502    -0.08405   1.00
C5       0.67713    0.23242    0.02228   1.00
H1       0.75371    0.18754    -0.02691   1.00
H1       0.68959    0.23529    0.10021   1.00
H1       0.75363    0.18750    -0.09901   1.00
H1       0.81088    0.26458    0.09901   1.00
H1       0.74664    0.31209    -0.10021   1.00
C5       0.74579    0.32485    -0.02228   1.00
H1       0.81087    0.26448    0.02691   1.00
H2       0.73355    0.34696    -0.04256   1.00
H2       0.72520    0.32323    0.00269   1.00
H2       0.65242    0.23775    0.04256   1.00
H2       0.67273    0.25260    -0.00269   1.00
N1       0.78421    0.33749    -0.00857   1.00
C6       0.81484    0.34700    -0.03073   1.00
C6       0.79501    0.34279    0.02846   1.00
C6       0.84578    0.35802    -0.00759   1.00
C6       0.83316    0.35535    0.03005   1.00
H3       0.81497    0.34571    -0.06197   1.00
H3       0.77642    0.33756    0.05300   1.00
H3       0.87432    0.36702    -0.01713   1.00
H3       0.84992    0.36181    0.05575   1.00
N1       0.67612    0.19199    0.00857   1.00
C6       0.67416    0.18011    -0.02846   1.00
C6       0.67586    0.15991    0.03073   1.00
C6       0.67315    0.13996    -0.03005   1.00
C6       0.67424    0.12711    0.00759   1.00
H3       0.67380    0.19942    -0.05300   1.00
H3       0.67712    0.16016    0.06197   1.00
H3       0.67180    0.12205    -0.05575   1.00
H3       0.67386    0.09718    0.01713   1.00
C4       0.91488    0.91516    1.14415   1.00
C4       0.91512    0.91484    1.18585   1.00
C3a      0.88034    0.92368    1.12246   1.00
C3       0.91729    0.94990    1.20732   1.00
C3       0.94908    0.90712    1.12268   1.00
C3a      0.91330    0.87931    1.20754   1.00
C2       0.91506    0.91505    1.05988   1.00
C2       0.91507    0.91505    1.27012   1.00
C3       0.88096    0.92341    1.08095   1.00
C3       0.91715    0.94996    1.24863   1.00
C3       0.94909    0.90696    1.08137   1.00
C3       0.91323    0.87998    1.24905   1.00
C5       0.84213    0.93258    1.14272   1.00
H1       0.91871    0.97746    1.19191   1.00
H1       0.85459    0.92971    1.06479   1.00
H1       0.91863    0.97750    1.26401   1.00
H1       0.97588    0.90042    1.06599   1.00
H1       0.91164    0.85291    1.26521   1.00
C5       0.91079    0.84015    1.18728   1.00
H1       0.97587    0.90052    1.13809   1.00
H2       0.89855    0.81804    1.20756   1.00
H2       0.89020    0.84177    1.16231   1.00
H2       0.81742    0.92725    1.12244   1.00
H2       0.83773    0.91240    1.16769   1.00
N1       0.94921    0.82751    1.17357   1.00
C6       0.97984    0.81800    1.19573   1.00
C6       0.96001    0.82221    1.13654   1.00
C6       1.01078    0.80698    1.17259   1.00
C6       0.99816    0.80965    1.13495   1.00
H3       0.97997    0.81929    1.22697   1.00
H3       0.94142    0.82744    1.11200   1.00
H3       1.03932    0.79798    1.18213   1.00
H3       1.01492    0.80319    1.10925   1.00
N1       0.84112    0.97301    1.15643   1.00
C6       0.83916    0.98489    1.19346   1.00
C6       0.84086    1.00509    1.13427   1.00
C6       0.83815    1.02504    1.19505   1.00
C6       0.83924    1.03789    1.15741   1.00
H3       0.83880    0.96558    1.21800   1.00
H3       0.84212    1.00484    1.10303   1.00
H3       0.83680    1.04295    1.22075   1.00
H3       0.83886    1.06782    1.14787   1.00
C4       0.91516    1.14415    0.91488   1.00
C4       0.91484    1.18585    0.91512   1.00
C3a      0.92368    1.12246    0.88034   1.00
C3       0.94990    1.20732    0.91729   1.00
C3       0.90712    1.12268    0.94908   1.00
C3a      0.87931    1.20754    0.91330   1.00
C2       0.91505    1.05988    0.91506   1.00
C2       0.91505    1.27012    0.91507   1.00
C3       0.92341    1.08095    0.88096   1.00
C3       0.94996    1.24863    0.91715   1.00
C3       0.90696    1.08137    0.94909   1.00
C3       0.87998    1.24905    0.91323   1.00
C5       0.93258    1.14272    0.84213   1.00
H1       0.97746    1.19191    0.91871   1.00
H1       0.92971    1.06479    0.85459   1.00
H1       0.97750    1.26401    0.91863   1.00
H1       0.90042    1.06599    0.97588   1.00
H1       0.85291    1.26521    0.91164   1.00
C5       0.84015    1.18728    0.91079   1.00
H1       0.90052    1.13809    0.97587   1.00
H2       0.81804    1.20756    0.89855   1.00
H2       0.84177    1.16231    0.89020   1.00
H2       0.92725    1.12244    0.81742   1.00
H2       0.91240    1.16769    0.83773   1.00
N1       0.82751    1.17357    0.94921   1.00
C6       0.81800    1.19573    0.97984   1.00
C6       0.82221    1.13654    0.96001   1.00
C6       0.80698    1.17259    1.01078   1.00
C6       0.80965    1.13495    0.99816   1.00
H3       0.81929    1.22697    0.97997   1.00
H3       0.82744    1.11200    0.94142   1.00
H3       0.79798    1.18213    1.03932   1.00
H3       0.80319    1.10925    1.01492   1.00
N1       0.97301    1.15643    0.84112   1.00
C6       0.98489    1.19346    0.83916   1.00
C6       1.00509    1.13427    0.84086   1.00
C6       1.02504    1.19505    0.83815   1.00
C6       1.03789    1.15741    0.83924   1.00
H3       0.96558    1.21800    0.83880   1.00
H3       1.00484    1.10303    0.84212   1.00
H3       1.04295    1.22075    0.83680   1.00
H3       1.06782    1.14787    0.83886   1.00
C4       0.68585    0.91488    0.91484   1.00
C4       0.64415    0.91512    0.91516   1.00
C3a      0.70754    0.88034    0.90632   1.00
C3       0.62268    0.91729    0.88010   1.00
C3       0.70732    0.94908    0.92288   1.00
C3a      0.62246    0.91330    0.95069   1.00
C2       0.77012    0.91506    0.91495   1.00
C2       0.55988    0.91507    0.91495   1.00
C3       0.74905    0.88096    0.90659   1.00
C3       0.58137    0.91715    0.88004   1.00
C3       0.74863    0.94909    0.92304   1.00
C3       0.58095    0.91323    0.95002   1.00
C5       0.68728    0.84213    0.89742   1.00
H1       0.63809    0.91871    0.85254   1.00
H1       0.76521    0.85459    0.90029   1.00
H1       0.56599    0.91863    0.85250   1.00
H1       0.76401    0.97588    0.92958   1.00
H1       0.56479    0.91164    0.97709   1.00
C5       0.64272    0.91079    0.98985   1.00
H1       0.69191    0.97587    0.92948   1.00
H2       0.62244    0.89855    1.01196   1.00
H2       0.66769    0.89020    0.98823   1.00
H2       0.70756    0.81742    0.90275   1.00
H2       0.66231    0.83773    0.91760   1.00
N1       0.65643    0.94921    1.00249   1.00
C6       0.63427    0.97984    1.01200   1.00
C6       0.69346    0.96001    1.00779   1.00
C6       0.65741    1.01078    1.02302   1.00
C6       0.69505    0.99816    1.02035   1.00
H3       0.60303    0.97997    1.01071   1.00
H3       0.71800    0.94142    1.00256   1.00
H3       0.64787    1.03932    1.03202   1.00
H3       0.72075    1.01492    1.02681   1.00
N1       0.67357    0.84112    0.85699   1.00
C6       0.63654    0.83916    0.84511   1.00
C6       0.69573    0.84086    0.82491   1.00
C6       0.63495    0.83815    0.80496   1.00
C6       0.67259    0.83924    0.79211   1.00
H3       0.61200    0.83880    0.86442   1.00
H3       0.72697    0.84212    0.82516   1.00
H3       0.60925    0.83680    0.78705   1.00
H3       0.68213    0.83886    0.76218   1.00
C4       1.14415    0.91488    0.91516   1.00
C4       1.18585    0.91512    0.91484   1.00
C3a      1.12246    0.88034    0.92368   1.00
C3       1.20732    0.91729    0.94990   1.00
C3       1.12268    0.94908    0.90712   1.00
C3a      1.20754    0.91330    0.87931   1.00
C2       1.05988    0.91506    0.91505   1.00
C2       1.27012    0.91507    0.91505   1.00
C3       1.08095    0.88096    0.92341   1.00
C3       1.24863    0.91715    0.94996   1.00
C3       1.08137    0.94909    0.90696   1.00
C3       1.24905    0.91323    0.87998   1.00
C5       1.14272    0.84213    0.93258   1.00
H1       1.19191    0.91871    0.97746   1.00
H1       1.06479    0.85459    0.92971   1.00
H1       1.26401    0.91863    0.97750   1.00
H1       1.06599    0.97588    0.90042   1.00
H1       1.26521    0.91164    0.85291   1.00
C5       1.18728    0.91079    0.84015   1.00
H1       1.13809    0.97587    0.90052   1.00
H2       1.20756    0.89855    0.81804   1.00
H2       1.16231    0.89020    0.84177   1.00
H2       1.12244    0.81742    0.92725   1.00
H2       1.16769    0.83773    0.91240   1.00
N1       1.17357    0.94921    0.82751   1.00
C6       1.19573    0.97984    0.81800   1.00
C6       1.13654    0.96001    0.82221   1.00
C6       1.17259    1.01078    0.80698   1.00
C6       1.13495    0.99816    0.80965   1.00
H3       1.22697    0.97997    0.81929   1.00
H3       1.11200    0.94142    0.82744   1.00
H3       1.18213    1.03932    0.79798   1.00
H3       1.10925    1.01492    0.80319   1.00
N1       1.15643    0.84112    0.97301   1.00
C6       1.19346    0.83916    0.98489   1.00
C6       1.13427    0.84086    1.00509   1.00
C6       1.19505    0.83815    1.02504   1.00
C6       1.15741    0.83924    1.03789   1.00
H3       1.21800    0.83880    0.96558   1.00
H3       1.10303    0.84212    1.00484   1.00
H3       1.22075    0.83680    1.04295   1.00
H3       1.14787    0.83886    1.06782   1.00
C4       0.91484    0.68585    0.91488   1.00
C4       0.91516    0.64415    0.91512   1.00
C3a      0.90632    0.70754    0.88034   1.00
C3       0.88010    0.62268    0.91729   1.00
C3       0.92288    0.70732    0.94908   1.00
C3a      0.95069    0.62246    0.91330   1.00
C2       0.91495    0.77012    0.91506   1.00
C2       0.91495    0.55988    0.91507   1.00
C3       0.90659    0.74905    0.88096   1.00
C3       0.88004    0.58137    0.91715   1.00
C3       0.92304    0.74863    0.94909   1.00
C3       0.95002    0.58095    0.91323   1.00
C5       0.89742    0.68728    0.84213   1.00
H1       0.85254    0.63809    0.91871   1.00
H1       0.90029    0.76521    0.85459   1.00
H1       0.85250    0.56599    0.91863   1.00
H1       0.92958    0.76401    0.97588   1.00
H1       0.97709    0.56479    0.91164   1.00
C5       0.98985    0.64272    0.91079   1.00
H1       0.92948    0.69191    0.97587   1.00
H2       1.01196    0.62244    0.89855   1.00
H2       0.98823    0.66769    0.89020   1.00
H2       0.90275    0.70756    0.81742   1.00
H2       0.91760    0.66231    0.83773   1.00
N1       1.00249    0.65643    0.94921   1.00
C6       1.01200    0.63427    0.97984   1.00
C6       1.00779    0.69346    0.96001   1.00
C6       1.02302    0.65741    1.01078   1.00
C6       1.02035    0.69505    0.99816   1.00
H3       1.01071    0.60303    0.97997   1.00
H3       1.00256    0.71800    0.94142   1.00
H3       1.03202    0.64787    1.03932   1.00
H3       1.02681    0.72075    1.01492   1.00
N1       0.85699    0.67357    0.84112   1.00
C6       0.84511    0.63654    0.83916   1.00
C6       0.82491    0.69573    0.84086   1.00
C6       0.80496    0.63495    0.83815   1.00
C6       0.79211    0.67259    0.83924   1.00
H3       0.86442    0.61200    0.83880   1.00
H3       0.82516    0.72697    0.84212   1.00
H3       0.78705    0.60925    0.83680   1.00
H3       0.76218    0.68213    0.83886   1.00
C4       0.91488    0.91484    0.68585   1.00
C4       0.91512    0.91516    0.64415   1.00
C3a      0.88034    0.90632    0.70754   1.00
C3       0.91729    0.88010    0.62268   1.00
C3       0.94908    0.92288    0.70732   1.00
C3a      0.91330    0.95069    0.62246   1.00
C2       0.91506    0.91495    0.77012   1.00
C2       0.91507    0.91495    0.55988   1.00
C3       0.88096    0.90659    0.74905   1.00
C3       0.91715    0.88004    0.58137   1.00
C3       0.94909    0.92304    0.74863   1.00
C3       0.91323    0.95002    0.58095   1.00
C5       0.84213    0.89742    0.68728   1.00
H1       0.91871    0.85254    0.63809   1.00
H1       0.85459    0.90029    0.76521   1.00
H1       0.91863    0.85250    0.56599   1.00
H1       0.97588    0.92958    0.76401   1.00
H1       0.91164    0.97709    0.56479   1.00
C5       0.91079    0.98985    0.64272   1.00
H1       0.97587    0.92948    0.69191   1.00
H2       0.89855    1.01196    0.62244   1.00
H2       0.89020    0.98823    0.66769   1.00
H2       0.81742    0.90275    0.70756   1.00
H2       0.83773    0.91760    0.66231   1.00
N1       0.94921    1.00249    0.65643   1.00
C6       0.97984    1.01200    0.63427   1.00
C6       0.96001    1.00779    0.69346   1.00
C6       1.01078    1.02302    0.65741   1.00
C6       0.99816    1.02035    0.69505   1.00
H3       0.97997    1.01071    0.60303   1.00
H3       0.94142    1.00256    0.71800   1.00
H3       1.03932    1.03202    0.64787   1.00
H3       1.01492    1.02681    0.72075   1.00
N1       0.84112    0.85699    0.67357   1.00
C6       0.83916    0.84511    0.63654   1.00
C6       0.84086    0.82491    0.69573   1.00
C6       0.83815    0.80496    0.63495   1.00
C6       0.83924    0.79211    0.67259   1.00
H3       0.83880    0.86442    0.61200   1.00
H3       0.84212    0.82516    0.72697   1.00
H3       0.83680    0.78705    0.60925   1.00
H3       0.83886    0.76218    0.68213   1.00
C4       0.41488    0.41516    1.14415   1.00
C4       0.41512    0.41484    1.18585   1.00
C3a      0.38034    0.42368    1.12246   1.00
C3       0.41729    0.44990    1.20732   1.00
C3       0.44908    0.40712    1.12268   1.00
C3a      0.41330    0.37931    1.20754   1.00
C2       0.41506    0.41505    1.05988   1.00
C2       0.41507    0.41505    1.27012   1.00
C3       0.38096    0.42341    1.08095   1.00
C3       0.41715    0.44996    1.24863   1.00
C3       0.44909    0.40696    1.08137   1.00
C3       0.41323    0.37998    1.24905   1.00
C5       0.34213    0.43258    1.14272   1.00
H1       0.41871    0.47746    1.19191   1.00
H1       0.35459    0.42971    1.06479   1.00
H1       0.41863    0.47750    1.26401   1.00
H1       0.47588    0.40042    1.06599   1.00
H1       0.41164    0.35291    1.26521   1.00
C5       0.41079    0.34015    1.18728   1.00
H1       0.47587    0.40052    1.13809   1.00
H2       0.39855    0.31804    1.20756   1.00
H2       0.39020    0.34177    1.16231   1.00
H2       0.31742    0.42725    1.12244   1.00
H2       0.33773    0.41240    1.16769   1.00
N1       0.44921    0.32751    1.17357   1.00
C6       0.47984    0.31800    1.19573   1.00
C6       0.46001    0.32221    1.13654   1.00
C6       0.51078    0.30698    1.17259   1.00
C6       0.49816    0.30965    1.13495   1.00
H3       0.47997    0.31929    1.22697   1.00
H3       0.44142    0.32744    1.11200   1.00
H3       0.53932    0.29798    1.18213   1.00
H3       0.51492    0.30319    1.10925   1.00
N1       0.34112    0.47301    1.15643   1.00
C6       0.33916    0.48489    1.19346   1.00
C6       0.34086    0.50509    1.13427   1.00
C6       0.33815    0.52504    1.19505   1.00
C6       0.33924    0.53789    1.15741   1.00
H3       0.33880    0.46558    1.21800   1.00
H3       0.34212    0.50484    1.10303   1.00
H3       0.33680    0.54295    1.22075   1.00
H3       0.33886    0.56782    1.14787   1.00
C4       0.41516    0.64415    0.91488   1.00
C4       0.41484    0.68585    0.91512   1.00
C3a      0.42368    0.62246    0.88034   1.00
C3       0.44990    0.70732    0.91729   1.00
C3       0.40712    0.62268    0.94908   1.00
C3a      0.37931    0.70754    0.91330   1.00
C2       0.41505    0.55988    0.91506   1.00
C2       0.41505    0.77012    0.91507   1.00
C3       0.42341    0.58095    0.88096   1.00
C3       0.44996    0.74863    0.91715   1.00
C3       0.40696    0.58137    0.94909   1.00
C3       0.37998    0.74905    0.91323   1.00
C5       0.43258    0.64272    0.84213   1.00
H1       0.47746    0.69191    0.91871   1.00
H1       0.42971    0.56479    0.85459   1.00
H1       0.47750    0.76401    0.91863   1.00
H1       0.40042    0.56599    0.97588   1.00
H1       0.35291    0.76521    0.91164   1.00
C5       0.34015    0.68728    0.91079   1.00
H1       0.40052    0.63809    0.97587   1.00
H2       0.31804    0.70756    0.89855   1.00
H2       0.34177    0.66231    0.89020   1.00
H2       0.42725    0.62244    0.81742   1.00
H2       0.41240    0.66769    0.83773   1.00
N1       0.32751    0.67357    0.94921   1.00
C6       0.31800    0.69573    0.97984   1.00
C6       0.32221    0.63654    0.96001   1.00
C6       0.30698    0.67259    1.01078   1.00
C6       0.30965    0.63495    0.99816   1.00
H3       0.31929    0.72697    0.97997   1.00
H3       0.32744    0.61200    0.94142   1.00
H3       0.29798    0.68213    1.03932   1.00
H3       0.30319    0.60925    1.01492   1.00
N1       0.47301    0.65643    0.84112   1.00
C6       0.48489    0.69346    0.83916   1.00
C6       0.50509    0.63427    0.84086   1.00
C6       0.52504    0.69505    0.83815   1.00
C6       0.53789    0.65741    0.83924   1.00
H3       0.46558    0.71800    0.83880   1.00
H3       0.50484    0.60303    0.84212   1.00
H3       0.54295    0.72075    0.83680   1.00
H3       0.56782    0.64787    0.83886   1.00
C4       0.18585    0.41488    0.91484   1.00
C4       0.14415    0.41512    0.91516   1.00
C3a      0.20754    0.38034    0.90632   1.00
C3       0.12268    0.41729    0.88010   1.00
C3       0.20732    0.44908    0.92288   1.00
C3a      0.12246    0.41330    0.95069   1.00
C2       0.27012    0.41506    0.91495   1.00
C2       0.05988    0.41507    0.91495   1.00
C3       0.24905    0.38096    0.90659   1.00
C3       0.08137    0.41715    0.88004   1.00
C3       0.24863    0.44909    0.92304   1.00
C3       0.08095    0.41323    0.95002   1.00
C5       0.18728    0.34213    0.89742   1.00
H1       0.13809    0.41871    0.85254   1.00
H1       0.26521    0.35459    0.90029   1.00
H1       0.06599    0.41863    0.85250   1.00
H1       0.26401    0.47588    0.92958   1.00
H1       0.06479    0.41164    0.97709   1.00
C5       0.14272    0.41079    0.98985   1.00
H1       0.19191    0.47587    0.92948   1.00
H2       0.12244    0.39855    1.01196   1.00
H2       0.16769    0.39020    0.98823   1.00
H2       0.20756    0.31742    0.90275   1.00
H2       0.16231    0.33773    0.91760   1.00
N1       0.15643    0.44921    1.00249   1.00
C6       0.13427    0.47984    1.01200   1.00
C6       0.19346    0.46001    1.00779   1.00
C6       0.15741    0.51078    1.02302   1.00
C6       0.19505    0.49816    1.02035   1.00
H3       0.10303    0.47997    1.01071   1.00
H3       0.21800    0.44142    1.00256   1.00
H3       0.14787    0.53932    1.03202   1.00
H3       0.22075    0.51492    1.02681   1.00
N1       0.17357    0.34112    0.85699   1.00
C6       0.13654    0.33916    0.84511   1.00
C6       0.19573    0.34086    0.82491   1.00
C6       0.13495    0.33815    0.80496   1.00
C6       0.17259    0.33924    0.79211   1.00
H3       0.11200    0.33880    0.86442   1.00
H3       0.22697    0.34212    0.82516   1.00
H3       0.10925    0.33680    0.78705   1.00
H3       0.18213    0.33886    0.76218   1.00
C4       0.64415    0.41488    0.91516   1.00
C4       0.68585    0.41512    0.91484   1.00
C3a      0.62246    0.38034    0.92368   1.00
C3       0.70732    0.41729    0.94990   1.00
C3       0.62268    0.44908    0.90712   1.00
C3a      0.70754    0.41330    0.87931   1.00
C2       0.55988    0.41506    0.91505   1.00
C2       0.77012    0.41507    0.91505   1.00
C3       0.58095    0.38096    0.92341   1.00
C3       0.74863    0.41715    0.94996   1.00
C3       0.58137    0.44909    0.90696   1.00
C3       0.74905    0.41323    0.87998   1.00
C5       0.64272    0.34213    0.93258   1.00
H1       0.69191    0.41871    0.97746   1.00
H1       0.56479    0.35459    0.92971   1.00
H1       0.76401    0.41863    0.97750   1.00
H1       0.56599    0.47588    0.90042   1.00
H1       0.76521    0.41164    0.85291   1.00
C5       0.68728    0.41079    0.84015   1.00
H1       0.63809    0.47587    0.90052   1.00
H2       0.70756    0.39855    0.81804   1.00
H2       0.66231    0.39020    0.84177   1.00
H2       0.62244    0.31742    0.92725   1.00
H2       0.66769    0.33773    0.91240   1.00
N1       0.67357    0.44921    0.82751   1.00
C6       0.69573    0.47984    0.81800   1.00
C6       0.63654    0.46001    0.82221   1.00
C6       0.67259    0.51078    0.80698   1.00
C6       0.63495    0.49816    0.80965   1.00
H3       0.72697    0.47997    0.81929   1.00
H3       0.61200    0.44142    0.82744   1.00
H3       0.68213    0.53932    0.79798   1.00
H3       0.60925    0.51492    0.80319   1.00
N1       0.65643    0.34112    0.97301   1.00
C6       0.69346    0.33916    0.98489   1.00
C6       0.63427    0.34086    1.00509   1.00
C6       0.69505    0.33815    1.02504   1.00
C6       0.65741    0.33924    1.03789   1.00
H3       0.71800    0.33880    0.96558   1.00
H3       0.60303    0.34212    1.00484   1.00
H3       0.72075    0.33680    1.04295   1.00
H3       0.64787    0.33886    1.06782   1.00
C4       0.41484    0.18585    0.91488   1.00
C4       0.41516    0.14415    0.91512   1.00
C3a      0.40632    0.20754    0.88034   1.00
C3       0.38010    0.12268    0.91729   1.00
C3       0.42288    0.20732    0.94908   1.00
C3a      0.45069    0.12246    0.91330   1.00
C2       0.41495    0.27012    0.91506   1.00
C2       0.41495    0.05988    0.91507   1.00
C3       0.40659    0.24905    0.88096   1.00
C3       0.38004    0.08137    0.91715   1.00
C3       0.42304    0.24863    0.94909   1.00
C3       0.45002    0.08095    0.91323   1.00
C5       0.39742    0.18728    0.84213   1.00
H1       0.35254    0.13809    0.91871   1.00
H1       0.40029    0.26521    0.85459   1.00
H1       0.35250    0.06599    0.91863   1.00
H1       0.42958    0.26401    0.97588   1.00
H1       0.47709    0.06479    0.91164   1.00
C5       0.48985    0.14272    0.91079   1.00
H1       0.42948    0.19191    0.97587   1.00
H2       0.51196    0.12244    0.89855   1.00
H2       0.48823    0.16769    0.89020   1.00
H2       0.40275    0.20756    0.81742   1.00
H2       0.41760    0.16231    0.83773   1.00
N1       0.50249    0.15643    0.94921   1.00
C6       0.51200    0.13427    0.97984   1.00
C6       0.50779    0.19346    0.96001   1.00
C6       0.52302    0.15741    1.01078   1.00
C6       0.52035    0.19505    0.99816   1.00
H3       0.51071    0.10303    0.97997   1.00
H3       0.50256    0.21800    0.94142   1.00
H3       0.53202    0.14787    1.03932   1.00
H3       0.52681    0.22075    1.01492   1.00
N1       0.35699    0.17357    0.84112   1.00
C6       0.34511    0.13654    0.83916   1.00
C6       0.32491    0.19573    0.84086   1.00
C6       0.30496    0.13495    0.83815   1.00
C6       0.29211    0.17259    0.83924   1.00
H3       0.36442    0.11200    0.83880   1.00
H3       0.32516    0.22697    0.84212   1.00
H3       0.28705    0.10925    0.83680   1.00
H3       0.26218    0.18213    0.83886   1.00
C4       0.41488    0.41484    0.68585   1.00
C4       0.41512    0.41516    0.64415   1.00
C3a      0.38034    0.40632    0.70754   1.00
C3       0.41729    0.38010    0.62268   1.00
C3       0.44908    0.42288    0.70732   1.00
C3a      0.41330    0.45069    0.62246   1.00
C2       0.41506    0.41495    0.77012   1.00
C2       0.41507    0.41495    0.55988   1.00
C3       0.38096    0.40659    0.74905   1.00
C3       0.41715    0.38004    0.58137   1.00
C3       0.44909    0.42304    0.74863   1.00
C3       0.41323    0.45002    0.58095   1.00
C5       0.34213    0.39742    0.68728   1.00
H1       0.41871    0.35254    0.63809   1.00
H1       0.35459    0.40029    0.76521   1.00
H1       0.41863    0.35250    0.56599   1.00
H1       0.47588    0.42958    0.76401   1.00
H1       0.41164    0.47709    0.56479   1.00
C5       0.41079    0.48985    0.64272   1.00
H1       0.47587    0.42948    0.69191   1.00
H2       0.39855    0.51196    0.62244   1.00
H2       0.39020    0.48823    0.66769   1.00
H2       0.31742    0.40275    0.70756   1.00
H2       0.33773    0.41760    0.66231   1.00
N1       0.44921    0.50249    0.65643   1.00
C6       0.47984    0.51200    0.63427   1.00
C6       0.46001    0.50779    0.69346   1.00
C6       0.51078    0.52302    0.65741   1.00
C6       0.49816    0.52035    0.69505   1.00
H3       0.47997    0.51071    0.60303   1.00
H3       0.44142    0.50256    0.71800   1.00
H3       0.53932    0.53202    0.64787   1.00
H3       0.51492    0.52681    0.72075   1.00
N1       0.34112    0.35699    0.67357   1.00
C6       0.33916    0.34511    0.63654   1.00
C6       0.34086    0.32491    0.69573   1.00
C6       0.33815    0.30496    0.63495   1.00
C6       0.33924    0.29211    0.67259   1.00
H3       0.33880    0.36442    0.61200   1.00
H3       0.34212    0.32516    0.72697   1.00
H3       0.33680    0.28705    0.60925   1.00
H3       0.33886    0.26218    0.68213   1.00
C4       0.41488    0.91516    0.64415   1.00
C4       0.41512    0.91484    0.68585   1.00
C3a      0.38034    0.92368    0.62246   1.00
C3       0.41729    0.94990    0.70732   1.00
C3       0.44908    0.90712    0.62268   1.00
C3a      0.41330    0.87931    0.70754   1.00
C2       0.41506    0.91505    0.55988   1.00
C2       0.41507    0.91505    0.77012   1.00
C3       0.38096    0.92341    0.58095   1.00
C3       0.41715    0.94996    0.74863   1.00
C3       0.44909    0.90696    0.58137   1.00
C3       0.41323    0.87998    0.74905   1.00
C5       0.34213    0.93258    0.64272   1.00
H1       0.41871    0.97746    0.69191   1.00
H1       0.35459    0.92971    0.56479   1.00
H1       0.41863    0.97750    0.76401   1.00
H1       0.47588    0.90042    0.56599   1.00
H1       0.41164    0.85291    0.76521   1.00
C5       0.41079    0.84015    0.68728   1.00
H1       0.47587    0.90052    0.63809   1.00
H2       0.39855    0.81804    0.70756   1.00
H2       0.39020    0.84177    0.66231   1.00
H2       0.31742    0.92725    0.62244   1.00
H2       0.33773    0.91240    0.66769   1.00
N1       0.44921    0.82751    0.67357   1.00
C6       0.47984    0.81800    0.69573   1.00
C6       0.46001    0.82221    0.63654   1.00
C6       0.51078    0.80698    0.67259   1.00
C6       0.49816    0.80965    0.63495   1.00
H3       0.47997    0.81929    0.72697   1.00
H3       0.44142    0.82744    0.61200   1.00
H3       0.53932    0.79798    0.68213   1.00
H3       0.51492    0.80319    0.60925   1.00
N1       0.34112    0.97301    0.65643   1.00
C6       0.33916    0.98489    0.69346   1.00
C6       0.34086    1.00509    0.63427   1.00
C6       0.33815    1.02504    0.69505   1.00
C6       0.33924    1.03789    0.65741   1.00
H3       0.33880    0.96558    0.71800   1.00
H3       0.34212    1.00484    0.60303   1.00
H3       0.33680    1.04295    0.72075   1.00
H3       0.33886    1.06782    0.64787   1.00
C4       0.41516    1.14415    0.41488   1.00
C4       0.41484    1.18585    0.41512   1.00
C3a      0.42368    1.12246    0.38034   1.00
C3       0.44990    1.20732    0.41729   1.00
C3       0.40712    1.12268    0.44908   1.00
C3a      0.37931    1.20754    0.41330   1.00
C2       0.41505    1.05988    0.41506   1.00
C2       0.41505    1.27012    0.41507   1.00
C3       0.42341    1.08095    0.38096   1.00
C3       0.44996    1.24863    0.41715   1.00
C3       0.40696    1.08137    0.44909   1.00
C3       0.37998    1.24905    0.41323   1.00
C5       0.43258    1.14272    0.34213   1.00
H1       0.47746    1.19191    0.41871   1.00
H1       0.42971    1.06479    0.35459   1.00
H1       0.47750    1.26401    0.41863   1.00
H1       0.40042    1.06599    0.47588   1.00
H1       0.35291    1.26521    0.41164   1.00
C5       0.34015    1.18728    0.41079   1.00
H1       0.40052    1.13809    0.47587   1.00
H2       0.31804    1.20756    0.39855   1.00
H2       0.34177    1.16231    0.39020   1.00
H2       0.42725    1.12244    0.31742   1.00
H2       0.41240    1.16769    0.33773   1.00
N1       0.32751    1.17357    0.44921   1.00
C6       0.31800    1.19573    0.47984   1.00
C6       0.32221    1.13654    0.46001   1.00
C6       0.30698    1.17259    0.51078   1.00
C6       0.30965    1.13495    0.49816   1.00
H3       0.31929    1.22697    0.47997   1.00
H3       0.32744    1.11200    0.44142   1.00
H3       0.29798    1.18213    0.53932   1.00
H3       0.30319    1.10925    0.51492   1.00
N1       0.47301    1.15643    0.34112   1.00
C6       0.48489    1.19346    0.33916   1.00
C6       0.50509    1.13427    0.34086   1.00
C6       0.52504    1.19505    0.33815   1.00
C6       0.53789    1.15741    0.33924   1.00
H3       0.46558    1.21800    0.33880   1.00
H3       0.50484    1.10303    0.34212   1.00
H3       0.54295    1.22075    0.33680   1.00
H3       0.56782    1.14787    0.33886   1.00
C4       0.18585    0.91488    0.41484   1.00
C4       0.14415    0.91512    0.41516   1.00
C3a      0.20754    0.88034    0.40632   1.00
C3       0.12268    0.91729    0.38010   1.00
C3       0.20732    0.94908    0.42288   1.00
C3a      0.12246    0.91330    0.45069   1.00
C2       0.27012    0.91506    0.41495   1.00
C2       0.05988    0.91507    0.41495   1.00
C3       0.24905    0.88096    0.40659   1.00
C3       0.08137    0.91715    0.38004   1.00
C3       0.24863    0.94909    0.42304   1.00
C3       0.08095    0.91323    0.45002   1.00
C5       0.18728    0.84213    0.39742   1.00
H1       0.13809    0.91871    0.35254   1.00
H1       0.26521    0.85459    0.40029   1.00
H1       0.06599    0.91863    0.35250   1.00
H1       0.26401    0.97588    0.42958   1.00
H1       0.06479    0.91164    0.47709   1.00
C5       0.14272    0.91079    0.48985   1.00
H1       0.19191    0.97587    0.42948   1.00
H2       0.12244    0.89855    0.51196   1.00
H2       0.16769    0.89020    0.48823   1.00
H2       0.20756    0.81742    0.40275   1.00
H2       0.16231    0.83773    0.41760   1.00
N1       0.15643    0.94921    0.50249   1.00
C6       0.13427    0.97984    0.51200   1.00
C6       0.19346    0.96001    0.50779   1.00
C6       0.15741    1.01078    0.52302   1.00
C6       0.19505    0.99816    0.52035   1.00
H3       0.10303    0.97997    0.51071   1.00
H3       0.21800    0.94142    0.50256   1.00
H3       0.14787    1.03932    0.53202   1.00
H3       0.22075    1.01492    0.52681   1.00
N1       0.17357    0.84112    0.35699   1.00
C6       0.13654    0.83916    0.34511   1.00
C6       0.19573    0.84086    0.32491   1.00
C6       0.13495    0.83815    0.30496   1.00
C6       0.17259    0.83924    0.29211   1.00
H3       0.11200    0.83880    0.36442   1.00
H3       0.22697    0.84212    0.32516   1.00
H3       0.10925    0.83680    0.28705   1.00
H3       0.18213    0.83886    0.26218   1.00
C4       0.64415    0.91488    0.41516   1.00
C4       0.68585    0.91512    0.41484   1.00
C3a      0.62246    0.88034    0.42368   1.00
C3       0.70732    0.91729    0.44990   1.00
C3       0.62268    0.94908    0.40712   1.00
C3a      0.70754    0.91330    0.37931   1.00
C2       0.55988    0.91506    0.41505   1.00
C2       0.77012    0.91507    0.41505   1.00
C3       0.58095    0.88096    0.42341   1.00
C3       0.74863    0.91715    0.44996   1.00
C3       0.58137    0.94909    0.40696   1.00
C3       0.74905    0.91323    0.37998   1.00
C5       0.64272    0.84213    0.43258   1.00
H1       0.69191    0.91871    0.47746   1.00
H1       0.56479    0.85459    0.42971   1.00
H1       0.76401    0.91863    0.47750   1.00
H1       0.56599    0.97588    0.40042   1.00
H1       0.76521    0.91164    0.35291   1.00
C5       0.68728    0.91079    0.34015   1.00
H1       0.63809    0.97587    0.40052   1.00
H2       0.70756    0.89855    0.31804   1.00
H2       0.66231    0.89020    0.34177   1.00
H2       0.62244    0.81742    0.42725   1.00
H2       0.66769    0.83773    0.41240   1.00
N1       0.67357    0.94921    0.32751   1.00
C6       0.69573    0.97984    0.31800   1.00
C6       0.63654    0.96001    0.32221   1.00
C6       0.67259    1.01078    0.30698   1.00
C6       0.63495    0.99816    0.30965   1.00
H3       0.72697    0.97997    0.31929   1.00
H3       0.61200    0.94142    0.32744   1.00
H3       0.68213    1.03932    0.29798   1.00
H3       0.60925    1.01492    0.30319   1.00
N1       0.65643    0.84112    0.47301   1.00
C6       0.69346    0.83916    0.48489   1.00
C6       0.63427    0.84086    0.50509   1.00
C6       0.69505    0.83815    0.52504   1.00
C6       0.65741    0.83924    0.53789   1.00
H3       0.71800    0.83880    0.46558   1.00
H3       0.60303    0.84212    0.50484   1.00
H3       0.72075    0.83680    0.54295   1.00
H3       0.64787    0.83886    0.56782   1.00
C4       0.41484    0.68585    0.41488   1.00
C4       0.41516    0.64415    0.41512   1.00
C3a      0.40632    0.70754    0.38034   1.00
C3       0.38010    0.62268    0.41729   1.00
C3       0.42288    0.70732    0.44908   1.00
C3a      0.45069    0.62246    0.41330   1.00
C2       0.41495    0.77012    0.41506   1.00
C2       0.41495    0.55988    0.41507   1.00
C3       0.40659    0.74905    0.38096   1.00
C3       0.38004    0.58137    0.41715   1.00
C3       0.42304    0.74863    0.44909   1.00
C3       0.45002    0.58095    0.41323   1.00
C5       0.39742    0.68728    0.34213   1.00
H1       0.35254    0.63809    0.41871   1.00
H1       0.40029    0.76521    0.35459   1.00
H1       0.35250    0.56599    0.41863   1.00
H1       0.42958    0.76401    0.47588   1.00
H1       0.47709    0.56479    0.41164   1.00
C5       0.48985    0.64272    0.41079   1.00
H1       0.42948    0.69191    0.47587   1.00
H2       0.51196    0.62244    0.39855   1.00
H2       0.48823    0.66769    0.39020   1.00
H2       0.40275    0.70756    0.31742   1.00
H2       0.41760    0.66231    0.33773   1.00
N1       0.50249    0.65643    0.44921   1.00
C6       0.51200    0.63427    0.47984   1.00
C6       0.50779    0.69346    0.46001   1.00
C6       0.52302    0.65741    0.51078   1.00
C6       0.52035    0.69505    0.49816   1.00
H3       0.51071    0.60303    0.47997   1.00
H3       0.50256    0.71800    0.44142   1.00
H3       0.53202    0.64787    0.53932   1.00
H3       0.52681    0.72075    0.51492   1.00
N1       0.35699    0.67357    0.34112   1.00
C6       0.34511    0.63654    0.33916   1.00
C6       0.32491    0.69573    0.34086   1.00
C6       0.30496    0.63495    0.33815   1.00
C6       0.29211    0.67259    0.33924   1.00
H3       0.36442    0.61200    0.33880   1.00
H3       0.32516    0.72697    0.34212   1.00
H3       0.28705    0.60925    0.33680   1.00
H3       0.26218    0.68213    0.33886   1.00
C4       0.41488    0.91484    0.18585   1.00
C4       0.41512    0.91516    0.14415   1.00
C3a      0.38034    0.90632    0.20754   1.00
C3       0.41729    0.88010    0.12268   1.00
C3       0.44908    0.92288    0.20732   1.00
C3a      0.41330    0.95069    0.12246   1.00
C2       0.41506    0.91495    0.27012   1.00
C2       0.41507    0.91495    0.05988   1.00
C3       0.38096    0.90659    0.24905   1.00
C3       0.41715    0.88004    0.08137   1.00
C3       0.44909    0.92304    0.24863   1.00
C3       0.41323    0.95002    0.08095   1.00
C5       0.34213    0.89742    0.18728   1.00
H1       0.41871    0.85254    0.13809   1.00
H1       0.35459    0.90029    0.26521   1.00
H1       0.41863    0.85250    0.06599   1.00
H1       0.47588    0.92958    0.26401   1.00
H1       0.41164    0.97709    0.06479   1.00
C5       0.41079    0.98985    0.14272   1.00
H1       0.47587    0.92948    0.19191   1.00
H2       0.39855    1.01196    0.12244   1.00
H2       0.39020    0.98823    0.16769   1.00
H2       0.31742    0.90275    0.20756   1.00
H2       0.33773    0.91760    0.16231   1.00
N1       0.44921    1.00249    0.15643   1.00
C6       0.47984    1.01200    0.13427   1.00
C6       0.46001    1.00779    0.19346   1.00
C6       0.51078    1.02302    0.15741   1.00
C6       0.49816    1.02035    0.19505   1.00
H3       0.47997    1.01071    0.10303   1.00
H3       0.44142    1.00256    0.21800   1.00
H3       0.53932    1.03202    0.14787   1.00
H3       0.51492    1.02681    0.22075   1.00
N1       0.34112    0.85699    0.17357   1.00
C6       0.33916    0.84511    0.13654   1.00
C6       0.34086    0.82491    0.19573   1.00
C6       0.33815    0.80496    0.13495   1.00
C6       0.33924    0.79211    0.17259   1.00
H3       0.33880    0.86442    0.11200   1.00
H3       0.34212    0.82516    0.22697   1.00
H3       0.33680    0.78705    0.10925   1.00
H3       0.33886    0.76218    0.18213   1.00
C4       0.91488    0.41516    0.64415   1.00
C4       0.91512    0.41484    0.68585   1.00
C3a      0.88034    0.42368    0.62246   1.00
C3       0.91729    0.44990    0.70732   1.00
C3       0.94908    0.40712    0.62268   1.00
C3a      0.91330    0.37931    0.70754   1.00
C2       0.91506    0.41505    0.55988   1.00
C2       0.91507    0.41505    0.77012   1.00
C3       0.88096    0.42341    0.58095   1.00
C3       0.91715    0.44996    0.74863   1.00
C3       0.94909    0.40696    0.58137   1.00
C3       0.91323    0.37998    0.74905   1.00
C5       0.84213    0.43258    0.64272   1.00
H1       0.91871    0.47746    0.69191   1.00
H1       0.85459    0.42971    0.56479   1.00
H1       0.91863    0.47750    0.76401   1.00
H1       0.97588    0.40042    0.56599   1.00
H1       0.91164    0.35291    0.76521   1.00
C5       0.91079    0.34015    0.68728   1.00
H1       0.97587    0.40052    0.63809   1.00
H2       0.89855    0.31804    0.70756   1.00
H2       0.89020    0.34177    0.66231   1.00
H2       0.81742    0.42725    0.62244   1.00
H2       0.83773    0.41240    0.66769   1.00
N1       0.94921    0.32751    0.67357   1.00
C6       0.97984    0.31800    0.69573   1.00
C6       0.96001    0.32221    0.63654   1.00
C6       1.01078    0.30698    0.67259   1.00
C6       0.99816    0.30965    0.63495   1.00
H3       0.97997    0.31929    0.72697   1.00
H3       0.94142    0.32744    0.61200   1.00
H3       1.03932    0.29798    0.68213   1.00
H3       1.01492    0.30319    0.60925   1.00
N1       0.84112    0.47301    0.65643   1.00
C6       0.83916    0.48489    0.69346   1.00
C6       0.84086    0.50509    0.63427   1.00
C6       0.83815    0.52504    0.69505   1.00
C6       0.83924    0.53789    0.65741   1.00
H3       0.83880    0.46558    0.71800   1.00
H3       0.84212    0.50484    0.60303   1.00
H3       0.83680    0.54295    0.72075   1.00
H3       0.83886    0.56782    0.64787   1.00
C4       0.91516    0.64415    0.41488   1.00
C4       0.91484    0.68585    0.41512   1.00
C3a      0.92368    0.62246    0.38034   1.00
C3       0.94990    0.70732    0.41729   1.00
C3       0.90712    0.62268    0.44908   1.00
C3a      0.87931    0.70754    0.41330   1.00
C2       0.91505    0.55988    0.41506   1.00
C2       0.91505    0.77012    0.41507   1.00
C3       0.92341    0.58095    0.38096   1.00
C3       0.94996    0.74863    0.41715   1.00
C3       0.90696    0.58137    0.44909   1.00
C3       0.87998    0.74905    0.41323   1.00
C5       0.93258    0.64272    0.34213   1.00
H1       0.97746    0.69191    0.41871   1.00
H1       0.92971    0.56479    0.35459   1.00
H1       0.97750    0.76401    0.41863   1.00
H1       0.90042    0.56599    0.47588   1.00
H1       0.85291    0.76521    0.41164   1.00
C5       0.84015    0.68728    0.41079   1.00
H1       0.90052    0.63809    0.47587   1.00
H2       0.81804    0.70756    0.39855   1.00
H2       0.84177    0.66231    0.39020   1.00
H2       0.92725    0.62244    0.31742   1.00
H2       0.91240    0.66769    0.33773   1.00
N1       0.82751    0.67357    0.44921   1.00
C6       0.81800    0.69573    0.47984   1.00
C6       0.82221    0.63654    0.46001   1.00
C6       0.80698    0.67259    0.51078   1.00
C6       0.80965    0.63495    0.49816   1.00
H3       0.81929    0.72697    0.47997   1.00
H3       0.82744    0.61200    0.44142   1.00
H3       0.79798    0.68213    0.53932   1.00
H3       0.80319    0.60925    0.51492   1.00
N1       0.97301    0.65643    0.34112   1.00
C6       0.98489    0.69346    0.33916   1.00
C6       1.00509    0.63427    0.34086   1.00
C6       1.02504    0.69505    0.33815   1.00
C6       1.03789    0.65741    0.33924   1.00
H3       0.96558    0.71800    0.33880   1.00
H3       1.00484    0.60303    0.34212   1.00
H3       1.04295    0.72075    0.33680   1.00
H3       1.06782    0.64787    0.33886   1.00
C4       0.68585    0.41488    0.41484   1.00
C4       0.64415    0.41512    0.41516   1.00
C3a      0.70754    0.38034    0.40632   1.00
C3       0.62268    0.41729    0.38010   1.00
C3       0.70732    0.44908    0.42288   1.00
C3a      0.62246    0.41330    0.45069   1.00
C2       0.77012    0.41506    0.41495   1.00
C2       0.55988    0.41507    0.41495   1.00
C3       0.74905    0.38096    0.40659   1.00
C3       0.58137    0.41715    0.38004   1.00
C3       0.74863    0.44909    0.42304   1.00
C3       0.58095    0.41323    0.45002   1.00
C5       0.68728    0.34213    0.39742   1.00
H1       0.63809    0.41871    0.35254   1.00
H1       0.76521    0.35459    0.40029   1.00
H1       0.56599    0.41863    0.35250   1.00
H1       0.76401    0.47588    0.42958   1.00
H1       0.56479    0.41164    0.47709   1.00
C5       0.64272    0.41079    0.48985   1.00
H1       0.69191    0.47587    0.42948   1.00
H2       0.62244    0.39855    0.51196   1.00
H2       0.66769    0.39020    0.48823   1.00
H2       0.70756    0.31742    0.40275   1.00
H2       0.66231    0.33773    0.41760   1.00
N1       0.65643    0.44921    0.50249   1.00
C6       0.63427    0.47984    0.51200   1.00
C6       0.69346    0.46001    0.50779   1.00
C6       0.65741    0.51078    0.52302   1.00
C6       0.69505    0.49816    0.52035   1.00
H3       0.60303    0.47997    0.51071   1.00
H3       0.71800    0.44142    0.50256   1.00
H3       0.64787    0.53932    0.53202   1.00
H3       0.72075    0.51492    0.52681   1.00
N1       0.67357    0.34112    0.35699   1.00
C6       0.63654    0.33916    0.34511   1.00
C6       0.69573    0.34086    0.32491   1.00
C6       0.63495    0.33815    0.30496   1.00
C6       0.67259    0.33924    0.29211   1.00
H3       0.61200    0.33880    0.36442   1.00
H3       0.72697    0.34212    0.32516   1.00
H3       0.60925    0.33680    0.28705   1.00
H3       0.68213    0.33886    0.26218   1.00
C4       1.14415    0.41488    0.41516   1.00
C4       1.18585    0.41512    0.41484   1.00
C3a      1.12246    0.38034    0.42368   1.00
C3       1.20732    0.41729    0.44990   1.00
C3       1.12268    0.44908    0.40712   1.00
C3a      1.20754    0.41330    0.37931   1.00
C2       1.05988    0.41506    0.41505   1.00
C2       1.27012    0.41507    0.41505   1.00
C3       1.08095    0.38096    0.42341   1.00
C3       1.24863    0.41715    0.44996   1.00
C3       1.08137    0.44909    0.40696   1.00
C3       1.24905    0.41323    0.37998   1.00
C5       1.14272    0.34213    0.43258   1.00
H1       1.19191    0.41871    0.47746   1.00
H1       1.06479    0.35459    0.42971   1.00
H1       1.26401    0.41863    0.47750   1.00
H1       1.06599    0.47588    0.40042   1.00
H1       1.26521    0.41164    0.35291   1.00
C5       1.18728    0.41079    0.34015   1.00
H1       1.13809    0.47587    0.40052   1.00
H2       1.20756    0.39855    0.31804   1.00
H2       1.16231    0.39020    0.34177   1.00
H2       1.12244    0.31742    0.42725   1.00
H2       1.16769    0.33773    0.41240   1.00
N1       1.17357    0.44921    0.32751   1.00
C6       1.19573    0.47984    0.31800   1.00
C6       1.13654    0.46001    0.32221   1.00
C6       1.17259    0.51078    0.30698   1.00
C6       1.13495    0.49816    0.30965   1.00
H3       1.22697    0.47997    0.31929   1.00
H3       1.11200    0.44142    0.32744   1.00
H3       1.18213    0.53932    0.29798   1.00
H3       1.10925    0.51492    0.30319   1.00
N1       1.15643    0.34112    0.47301   1.00
C6       1.19346    0.33916    0.48489   1.00
C6       1.13427    0.34086    0.50509   1.00
C6       1.19505    0.33815    0.52504   1.00
C6       1.15741    0.33924    0.53789   1.00
H3       1.21800    0.33880    0.46558   1.00
H3       1.10303    0.34212    0.50484   1.00
H3       1.22075    0.33680    0.54295   1.00
H3       1.14787    0.33886    0.56782   1.00
C4       0.91484    0.18585    0.41488   1.00
C4       0.91516    0.14415    0.41512   1.00
C3a      0.90632    0.20754    0.38034   1.00
C3       0.88010    0.12268    0.41729   1.00
C3       0.92288    0.20732    0.44908   1.00
C3a      0.95069    0.12246    0.41330   1.00
C2       0.91495    0.27012    0.41506   1.00
C2       0.91495    0.05988    0.41507   1.00
C3       0.90659    0.24905    0.38096   1.00
C3       0.88004    0.08137    0.41715   1.00
C3       0.92304    0.24863    0.44909   1.00
C3       0.95002    0.08095    0.41323   1.00
C5       0.89742    0.18728    0.34213   1.00
H1       0.85254    0.13809    0.41871   1.00
H1       0.90029    0.26521    0.35459   1.00
H1       0.85250    0.06599    0.41863   1.00
H1       0.92958    0.26401    0.47588   1.00
H1       0.97709    0.06479    0.41164   1.00
C5       0.98985    0.14272    0.41079   1.00
H1       0.92948    0.19191    0.47587   1.00
H2       1.01196    0.12244    0.39855   1.00
H2       0.98823    0.16769    0.39020   1.00
H2       0.90275    0.20756    0.31742   1.00
H2       0.91760    0.16231    0.33773   1.00
N1       1.00249    0.15643    0.44921   1.00
C6       1.01200    0.13427    0.47984   1.00
C6       1.00779    0.19346    0.46001   1.00
C6       1.02302    0.15741    0.51078   1.00
C6       1.02035    0.19505    0.49816   1.00
H3       1.01071    0.10303    0.47997   1.00
H3       1.00256    0.21800    0.44142   1.00
H3       1.03202    0.14787    0.53932   1.00
H3       1.02681    0.22075    0.51492   1.00
N1       0.85699    0.17357    0.34112   1.00
C6       0.84511    0.13654    0.33916   1.00
C6       0.82491    0.19573    0.34086   1.00
C6       0.80496    0.13495    0.33815   1.00
C6       0.79211    0.17259    0.33924   1.00
H3       0.86442    0.11200    0.33880   1.00
H3       0.82516    0.22697    0.34212   1.00
H3       0.78705    0.10925    0.33680   1.00
H3       0.76218    0.18213    0.33886   1.00
C4       0.91488    0.41484    0.18585   1.00
C4       0.91512    0.41516    0.14415   1.00
C3a      0.88034    0.40632    0.20754   1.00
C3       0.91729    0.38010    0.12268   1.00
C3       0.94908    0.42288    0.20732   1.00
C3a      0.91330    0.45069    0.12246   1.00
C2       0.91506    0.41495    0.27012   1.00
C2       0.91507    0.41495    0.05988   1.00
C3       0.88096    0.40659    0.24905   1.00
C3       0.91715    0.38004    0.08137   1.00
C3       0.94909    0.42304    0.24863   1.00
C3       0.91323    0.45002    0.08095   1.00
C5       0.84213    0.39742    0.18728   1.00
H1       0.91871    0.35254    0.13809   1.00
H1       0.85459    0.40029    0.26521   1.00
H1       0.91863    0.35250    0.06599   1.00
H1       0.97588    0.42958    0.26401   1.00
H1       0.91164    0.47709    0.06479   1.00
C5       0.91079    0.48985    0.14272   1.00
H1       0.97587    0.42948    0.19191   1.00
H2       0.89855    0.51196    0.12244   1.00
H2       0.89020    0.48823    0.16769   1.00
H2       0.81742    0.40275    0.20756   1.00
H2       0.83773    0.41760    0.16231   1.00
N1       0.94921    0.50249    0.15643   1.00
C6       0.97984    0.51200    0.13427   1.00
C6       0.96001    0.50779    0.19346   1.00
C6       1.01078    0.52302    0.15741   1.00
C6       0.99816    0.52035    0.19505   1.00
H3       0.97997    0.51071    0.10303   1.00
H3       0.94142    0.50256    0.21800   1.00
H3       1.03932    0.53202    0.14787   1.00
H3       1.01492    0.52681    0.22075   1.00
N1       0.84112    0.35699    0.17357   1.00
C6       0.83916    0.34511    0.13654   1.00
C6       0.84086    0.32491    0.19573   1.00
C6       0.83815    0.30496    0.13495   1.00
C6       0.83924    0.29211    0.17259   1.00
H3       0.83880    0.36442    0.11200   1.00
H3       0.84212    0.32516    0.22697   1.00
H3       0.83680    0.28705    0.10925   1.00
H3       0.83886    0.26218    0.18213   1.00
