data_IRMOF10_SG202_interpen_Ligand11cp_label_q.

_audit_creation_method             'generated by an auxiliary program of Tobunporous'

_symmetry_space_group_name_H-M     'P 1'
_symmetry_Int_Tables_number        1
_symmetry_cell_setting             triclinic

_cell_length_a                    34.2800
_cell_length_b                    34.2800
_cell_length_c                    34.2800
_cell_angle_alpha                 90.0000
_cell_angle_beta                  90.0000
_cell_angle_gamma                 90.0000

loop_
_atom_site_label
_atom_site_fract_x
_atom_site_fract_y
_atom_site_fract_z
_atom_site_occupancy
O1       0.75000    0.75000    0.75000   1.00
Zn1      0.71720    0.78280    0.78280   1.00
Zn1      0.78280    0.71720    0.78280   1.00
Zn1      0.78280    0.78280    0.71720   1.00
Zn1      0.71720    0.71720    0.71720   1.00
O2       0.72650    0.77350    0.83820   1.00
O2       0.72650    0.83820    0.77350   1.00
O2       0.66180    0.77350    0.77350   1.00
O2       0.77350    0.72650    0.83820   1.00
O2       0.83820    0.72650    0.77350   1.00
O2       0.77350    0.66180    0.77350   1.00
O2       0.77350    0.83820    0.72650   1.00
O2       0.83820    0.77350    0.72650   1.00
O2       0.77350    0.77350    0.66180   1.00
O2       0.66180    0.72650    0.72650   1.00
O2       0.72650    0.66180    0.72650   1.00
O2       0.72650    0.72650    0.66180   1.00
C1       0.75000    0.75000    0.85520   1.00
C1       0.75000    0.85520    0.75000   1.00
C1       0.64480    0.75000    0.75000   1.00
C1       0.85520    0.75000    0.75000   1.00
C1       0.75000    0.64480    0.75000   1.00
C1       0.75000    0.75000    0.64480   1.00
O1       0.25000    0.25000    0.75000   1.00
Zn1      0.21720    0.28280    0.78280   1.00
Zn1      0.28280    0.21720    0.78280   1.00
Zn1      0.28280    0.28280    0.71720   1.00
Zn1      0.21720    0.21720    0.71720   1.00
O2       0.22650    0.27350    0.83820   1.00
O2       0.22650    0.33820    0.77350   1.00
O2       0.16180    0.27350    0.77350   1.00
O2       0.27350    0.22650    0.83820   1.00
O2       0.33820    0.22650    0.77350   1.00
O2       0.27350    0.16180    0.77350   1.00
O2       0.27350    0.33820    0.72650   1.00
O2       0.33820    0.27350    0.72650   1.00
O2       0.27350    0.27350    0.66180   1.00
O2       0.16180    0.22650    0.72650   1.00
O2       0.22650    0.16180    0.72650   1.00
O2       0.22650    0.22650    0.66180   1.00
C1       0.25000    0.25000    0.85520   1.00
C1       0.25000    0.35520    0.75000   1.00
C1       0.14480    0.25000    0.75000   1.00
C1       0.35520    0.25000    0.75000   1.00
C1       0.25000    0.14480    0.75000   1.00
C1       0.25000    0.25000    0.64480   1.00
O1       0.25000    0.75000    0.25000   1.00
Zn1      0.21720    0.78280    0.28280   1.00
Zn1      0.28280    0.71720    0.28280   1.00
Zn1      0.28280    0.78280    0.21720   1.00
Zn1      0.21720    0.71720    0.21720   1.00
O2       0.22650    0.77350    0.33820   1.00
O2       0.22650    0.83820    0.27350   1.00
O2       0.16180    0.77350    0.27350   1.00
O2       0.27350    0.72650    0.33820   1.00
O2       0.33820    0.72650    0.27350   1.00
O2       0.27350    0.66180    0.27350   1.00
O2       0.27350    0.83820    0.22650   1.00
O2       0.33820    0.77350    0.22650   1.00
O2       0.27350    0.77350    0.16180   1.00
O2       0.16180    0.72650    0.22650   1.00
O2       0.22650    0.66180    0.22650   1.00
O2       0.22650    0.72650    0.16180   1.00
C1       0.25000    0.75000    0.35520   1.00
C1       0.25000    0.85520    0.25000   1.00
C1       0.14480    0.75000    0.25000   1.00
C1       0.35520    0.75000    0.25000   1.00
C1       0.25000    0.64480    0.25000   1.00
C1       0.25000    0.75000    0.14480   1.00
O1       0.75000    0.25000    0.25000   1.00
Zn1      0.71720    0.28280    0.28280   1.00
Zn1      0.78280    0.21720    0.28280   1.00
Zn1      0.78280    0.28280    0.21720   1.00
Zn1      0.71720    0.21720    0.21720   1.00
O2       0.72650    0.27350    0.33820   1.00
O2       0.72650    0.33820    0.27350   1.00
O2       0.66180    0.27350    0.27350   1.00
O2       0.77350    0.22650    0.33820   1.00
O2       0.83820    0.22650    0.27350   1.00
O2       0.77350    0.16180    0.27350   1.00
O2       0.77350    0.33820    0.22650   1.00
O2       0.83820    0.27350    0.22650   1.00
O2       0.77350    0.27350    0.16180   1.00
O2       0.66180    0.22650    0.22650   1.00
O2       0.72650    0.16180    0.22650   1.00
O2       0.72650    0.22650    0.16180   1.00
C1       0.75000    0.25000    0.35520   1.00
C1       0.75000    0.35520    0.25000   1.00
C1       0.64480    0.25000    0.25000   1.00
C1       0.85520    0.25000    0.25000   1.00
C1       0.75000    0.14480    0.25000   1.00
C1       0.75000    0.25000    0.14480   1.00
O1       0.25000    0.25000    0.25000   1.00
Zn1      0.28280    0.21720    0.21720   1.00
Zn1      0.21720    0.28280    0.21720   1.00
Zn1      0.21720    0.21720    0.28280   1.00
Zn1      0.28280    0.28280    0.28280   1.00
O2       0.27350    0.22650    0.16180   1.00
O2       0.27350    0.16180    0.22650   1.00
O2       0.33820    0.22650    0.22650   1.00
O2       0.22650    0.27350    0.16180   1.00
O2       0.16180    0.27350    0.22650   1.00
O2       0.22650    0.33820    0.22650   1.00
O2       0.22650    0.16180    0.27350   1.00
O2       0.16180    0.22650    0.27350   1.00
O2       0.22650    0.22650    0.33820   1.00
O2       0.33820    0.27350    0.27350   1.00
O2       0.27350    0.33820    0.27350   1.00
O2       0.27350    0.27350    0.33820   1.00
C1       0.25000    0.25000    0.14480   1.00
C1       0.25000    0.14480    0.25000   1.00
C1       0.35520    0.25000    0.25000   1.00
C1       0.14480    0.25000    0.25000   1.00
C1       0.25000    0.35520    0.25000   1.00
C1       0.25000    0.25000    0.35520   1.00
O1       0.75000    0.75000    0.25000   1.00
Zn1      0.78280    0.71720    0.21720   1.00
Zn1      0.71720    0.78280    0.21720   1.00
Zn1      0.71720    0.71720    0.28280   1.00
Zn1      0.78280    0.78280    0.28280   1.00
O2       0.77350    0.72650    0.16180   1.00
O2       0.77350    0.66180    0.22650   1.00
O2       0.83820    0.72650    0.22650   1.00
O2       0.72650    0.77350    0.16180   1.00
O2       0.66180    0.77350    0.22650   1.00
O2       0.72650    0.83820    0.22650   1.00
O2       0.72650    0.66180    0.27350   1.00
O2       0.66180    0.72650    0.27350   1.00
O2       0.72650    0.72650    0.33820   1.00
O2       0.83820    0.77350    0.27350   1.00
O2       0.77350    0.83820    0.27350   1.00
O2       0.77350    0.77350    0.33820   1.00
C1       0.75000    0.75000    0.14480   1.00
C1       0.75000    0.64480    0.25000   1.00
C1       0.85520    0.75000    0.25000   1.00
C1       0.64480    0.75000    0.25000   1.00
C1       0.75000    0.85520    0.25000   1.00
C1       0.75000    0.75000    0.35520   1.00
O1       0.75000    0.25000    0.75000   1.00
Zn1      0.78280    0.21720    0.71720   1.00
Zn1      0.71720    0.28280    0.71720   1.00
Zn1      0.71720    0.21720    0.78280   1.00
Zn1      0.78280    0.28280    0.78280   1.00
O2       0.77350    0.22650    0.66180   1.00
O2       0.77350    0.16180    0.72650   1.00
O2       0.83820    0.22650    0.72650   1.00
O2       0.72650    0.27350    0.66180   1.00
O2       0.66180    0.27350    0.72650   1.00
O2       0.72650    0.33820    0.72650   1.00
O2       0.72650    0.16180    0.77350   1.00
O2       0.66180    0.22650    0.77350   1.00
O2       0.72650    0.22650    0.83820   1.00
O2       0.83820    0.27350    0.77350   1.00
O2       0.77350    0.33820    0.77350   1.00
O2       0.77350    0.27350    0.83820   1.00
C1       0.75000    0.25000    0.64480   1.00
C1       0.75000    0.14480    0.75000   1.00
C1       0.85520    0.25000    0.75000   1.00
C1       0.64480    0.25000    0.75000   1.00
C1       0.75000    0.35520    0.75000   1.00
C1       0.75000    0.25000    0.85520   1.00
O1       0.25000    0.75000    0.75000   1.00
Zn1      0.28280    0.71720    0.71720   1.00
Zn1      0.21720    0.78280    0.71720   1.00
Zn1      0.21720    0.71720    0.78280   1.00
Zn1      0.28280    0.78280    0.78280   1.00
O2       0.27350    0.72650    0.66180   1.00
O2       0.27350    0.66180    0.72650   1.00
O2       0.33820    0.72650    0.72650   1.00
O2       0.22650    0.77350    0.66180   1.00
O2       0.16180    0.77350    0.72650   1.00
O2       0.22650    0.83820    0.72650   1.00
O2       0.22650    0.66180    0.77350   1.00
O2       0.16180    0.72650    0.77350   1.00
O2       0.22650    0.72650    0.83820   1.00
O2       0.33820    0.77350    0.77350   1.00
O2       0.27350    0.83820    0.77350   1.00
O2       0.27350    0.77350    0.83820   1.00
C1       0.25000    0.75000    0.64480   1.00
C1       0.25000    0.64480    0.75000   1.00
C1       0.35520    0.75000    0.75000   1.00
C1       0.14480    0.75000    0.75000   1.00
C1       0.25000    0.85520    0.75000   1.00
C1       0.25000    0.75000    0.85520   1.00
O1       0.91500    0.91500    0.91500   1.00
Zn1      0.88220    0.94780    0.94780   1.00
Zn1      0.94780    0.88220    0.94780   1.00
Zn1      0.94780    0.94780    0.88220   1.00
Zn1      0.88220    0.88220    0.88220   1.00
O2       0.89150    0.93850    1.00320   1.00
O2       0.89150    1.00320    0.93850   1.00
O2       0.82680    0.93850    0.93850   1.00
O2       0.93850    0.89150    1.00320   1.00
O2       1.00320    0.89150    0.93850   1.00
O2       0.93850    0.82680    0.93850   1.00
O2       0.93850    1.00320    0.89150   1.00
O2       1.00320    0.93850    0.89150   1.00
O2       0.93850    0.93850    0.82680   1.00
O2       0.82680    0.89150    0.89150   1.00
O2       0.89150    0.82680    0.89150   1.00
O2       0.89150    0.89150    0.82680   1.00
C1       0.91500    0.91500    1.02020   1.00
C1       0.91500    1.02020    0.91500   1.00
C1       0.80980    0.91500    0.91500   1.00
C1       1.02020    0.91500    0.91500   1.00
C1       0.91500    0.80980    0.91500   1.00
C1       0.91500    0.91500    0.80980   1.00
O1       0.41500    0.41500    0.91500   1.00
Zn1      0.38220    0.44780    0.94780   1.00
Zn1      0.44780    0.38220    0.94780   1.00
Zn1      0.44780    0.44780    0.88220   1.00
Zn1      0.38220    0.38220    0.88220   1.00
O2       0.39150    0.43850    1.00320   1.00
O2       0.39150    0.50320    0.93850   1.00
O2       0.32680    0.43850    0.93850   1.00
O2       0.43850    0.39150    1.00320   1.00
O2       0.50320    0.39150    0.93850   1.00
O2       0.43850    0.32680    0.93850   1.00
O2       0.43850    0.50320    0.89150   1.00
O2       0.50320    0.43850    0.89150   1.00
O2       0.43850    0.43850    0.82680   1.00
O2       0.32680    0.39150    0.89150   1.00
O2       0.39150    0.32680    0.89150   1.00
O2       0.39150    0.39150    0.82680   1.00
C1       0.41500    0.41500    1.02020   1.00
C1       0.41500    0.52020    0.91500   1.00
C1       0.30980    0.41500    0.91500   1.00
C1       0.52020    0.41500    0.91500   1.00
C1       0.41500    0.30980    0.91500   1.00
C1       0.41500    0.41500    0.80980   1.00
O1       0.41500    0.91500    0.41500   1.00
Zn1      0.38220    0.94780    0.44780   1.00
Zn1      0.44780    0.88220    0.44780   1.00
Zn1      0.44780    0.94780    0.38220   1.00
Zn1      0.38220    0.88220    0.38220   1.00
O2       0.39150    0.93850    0.50320   1.00
O2       0.39150    1.00320    0.43850   1.00
O2       0.32680    0.93850    0.43850   1.00
O2       0.43850    0.89150    0.50320   1.00
O2       0.50320    0.89150    0.43850   1.00
O2       0.43850    0.82680    0.43850   1.00
O2       0.43850    1.00320    0.39150   1.00
O2       0.50320    0.93850    0.39150   1.00
O2       0.43850    0.93850    0.32680   1.00
O2       0.32680    0.89150    0.39150   1.00
O2       0.39150    0.82680    0.39150   1.00
O2       0.39150    0.89150    0.32680   1.00
C1       0.41500    0.91500    0.52020   1.00
C1       0.41500    1.02020    0.41500   1.00
C1       0.30980    0.91500    0.41500   1.00
C1       0.52020    0.91500    0.41500   1.00
C1       0.41500    0.80980    0.41500   1.00
C1       0.41500    0.91500    0.30980   1.00
O1       0.91500    0.41500    0.41500   1.00
Zn1      0.88220    0.44780    0.44780   1.00
Zn1      0.94780    0.38220    0.44780   1.00
Zn1      0.94780    0.44780    0.38220   1.00
Zn1      0.88220    0.38220    0.38220   1.00
O2       0.89150    0.43850    0.50320   1.00
O2       0.89150    0.50320    0.43850   1.00
O2       0.82680    0.43850    0.43850   1.00
O2       0.93850    0.39150    0.50320   1.00
O2       1.00320    0.39150    0.43850   1.00
O2       0.93850    0.32680    0.43850   1.00
O2       0.93850    0.50320    0.39150   1.00
O2       1.00320    0.43850    0.39150   1.00
O2       0.93850    0.43850    0.32680   1.00
O2       0.82680    0.39150    0.39150   1.00
O2       0.89150    0.32680    0.39150   1.00
O2       0.89150    0.39150    0.32680   1.00
C1       0.91500    0.41500    0.52020   1.00
C1       0.91500    0.52020    0.41500   1.00
C1       0.80980    0.41500    0.41500   1.00
C1       1.02020    0.41500    0.41500   1.00
C1       0.91500    0.30980    0.41500   1.00
C1       0.91500    0.41500    0.30980   1.00
O1       0.41500    0.41500    0.41500   1.00
Zn1      0.44780    0.38220    0.38220   1.00
Zn1      0.38220    0.44780    0.38220   1.00
Zn1      0.38220    0.38220    0.44780   1.00
Zn1      0.44780    0.44780    0.44780   1.00
O2       0.43850    0.39150    0.32680   1.00
O2       0.43850    0.32680    0.39150   1.00
O2       0.50320    0.39150    0.39150   1.00
O2       0.39150    0.43850    0.32680   1.00
O2       0.32680    0.43850    0.39150   1.00
O2       0.39150    0.50320    0.39150   1.00
O2       0.39150    0.32680    0.43850   1.00
O2       0.32680    0.39150    0.43850   1.00
O2       0.39150    0.39150    0.50320   1.00
O2       0.50320    0.43850    0.43850   1.00
O2       0.43850    0.50320    0.43850   1.00
O2       0.43850    0.43850    0.50320   1.00
C1       0.41500    0.41500    0.30980   1.00
C1       0.41500    0.30980    0.41500   1.00
C1       0.52020    0.41500    0.41500   1.00
C1       0.30980    0.41500    0.41500   1.00
C1       0.41500    0.52020    0.41500   1.00
C1       0.41500    0.41500    0.52020   1.00
O1       0.91500    0.91500    0.41500   1.00
Zn1      0.94780    0.88220    0.38220   1.00
Zn1      0.88220    0.94780    0.38220   1.00
Zn1      0.88220    0.88220    0.44780   1.00
Zn1      0.94780    0.94780    0.44780   1.00
O2       0.93850    0.89150    0.32680   1.00
O2       0.93850    0.82680    0.39150   1.00
O2       1.00320    0.89150    0.39150   1.00
O2       0.89150    0.93850    0.32680   1.00
O2       0.82680    0.93850    0.39150   1.00
O2       0.89150    1.00320    0.39150   1.00
O2       0.89150    0.82680    0.43850   1.00
O2       0.82680    0.89150    0.43850   1.00
O2       0.89150    0.89150    0.50320   1.00
O2       1.00320    0.93850    0.43850   1.00
O2       0.93850    1.00320    0.43850   1.00
O2       0.93850    0.93850    0.50320   1.00
C1       0.91500    0.91500    0.30980   1.00
C1       0.91500    0.80980    0.41500   1.00
C1       1.02020    0.91500    0.41500   1.00
C1       0.80980    0.91500    0.41500   1.00
C1       0.91500    1.02020    0.41500   1.00
C1       0.91500    0.91500    0.52020   1.00
O1       0.91500    0.41500    0.91500   1.00
Zn1      0.94780    0.38220    0.88220   1.00
Zn1      0.88220    0.44780    0.88220   1.00
Zn1      0.88220    0.38220    0.94780   1.00
Zn1      0.94780    0.44780    0.94780   1.00
O2       0.93850    0.39150    0.82680   1.00
O2       0.93850    0.32680    0.89150   1.00
O2       1.00320    0.39150    0.89150   1.00
O2       0.89150    0.43850    0.82680   1.00
O2       0.82680    0.43850    0.89150   1.00
O2       0.89150    0.50320    0.89150   1.00
O2       0.89150    0.32680    0.93850   1.00
O2       0.82680    0.39150    0.93850   1.00
O2       0.89150    0.39150    1.00320   1.00
O2       1.00320    0.43850    0.93850   1.00
O2       0.93850    0.50320    0.93850   1.00
O2       0.93850    0.43850    1.00320   1.00
C1       0.91500    0.41500    0.80980   1.00
C1       0.91500    0.30980    0.91500   1.00
C1       1.02020    0.41500    0.91500   1.00
C1       0.80980    0.41500    0.91500   1.00
C1       0.91500    0.52020    0.91500   1.00
C1       0.91500    0.41500    1.02020   1.00
O1       0.41500    0.91500    0.91500   1.00
Zn1      0.44780    0.88220    0.88220   1.00
Zn1      0.38220    0.94780    0.88220   1.00
Zn1      0.38220    0.88220    0.94780   1.00
Zn1      0.44780    0.94780    0.94780   1.00
O2       0.43850    0.89150    0.82680   1.00
O2       0.43850    0.82680    0.89150   1.00
O2       0.50320    0.89150    0.89150   1.00
O2       0.39150    0.93850    0.82680   1.00
O2       0.32680    0.93850    0.89150   1.00
O2       0.39150    1.00320    0.89150   1.00
O2       0.39150    0.82680    0.93850   1.00
O2       0.32680    0.89150    0.93850   1.00
O2       0.39150    0.89150    1.00320   1.00
O2       0.50320    0.93850    0.93850   1.00
O2       0.43850    1.00320    0.93850   1.00
O2       0.43850    0.93850    1.00320   1.00
C1       0.41500    0.91500    0.80980   1.00
C1       0.41500    0.80980    0.91500   1.00
C1       0.52020    0.91500    0.91500   1.00
C1       0.30980    0.91500    0.91500   1.00
C1       0.41500    1.02020    0.91500   1.00
C1       0.41500    0.91500    1.02020   1.00
C4       0.74982    0.74993    0.97915   1.00
C4       0.75018    0.75007    1.02085   1.00
C3a      0.73264    0.71877    0.95746   1.00
C3       0.71688    0.76125    1.04232   1.00
C3       0.76644    0.78087    0.95768   1.00
C3a      0.78403    0.73912    1.04254   1.00
C2       0.74997    0.75007    0.89488   1.00
C2       0.74997    0.75008    1.10512   1.00
C3       0.73306    0.71930    0.91595   1.00
C3       0.71679    0.76112    1.08363   1.00
C3       0.76659    0.78084    0.91637   1.00
C3       0.78336    0.73922    1.08405   1.00
C5       0.71415    0.68416    0.97772   1.00
H1       0.69063    0.76976    1.02691   1.00
H1       0.72015    0.69546    0.89979   1.00
H1       0.69057    0.76968    1.09901   1.00
H1       0.77984    0.80503    0.90099   1.00
H1       0.80910    0.73068    1.10021   1.00
C5       0.82120    0.72655    1.02228   1.00
H1       0.77975    0.80505    0.97309   1.00
H2       0.83940    0.70901    1.04256   1.00
H2       0.81431    0.70708    0.99731   1.00
H2       0.71290    0.65892    0.95744   1.00
H2       0.73250    0.67469    1.00269   1.00
N1       0.84336    0.76039    1.00857   1.00
C6       0.86048    0.78752    1.03073   1.00
C6       0.85128    0.76945    0.97154   1.00
C6       0.87913    0.81454    1.00759   1.00
C6       0.87329    0.80305    0.96995   1.00
H3       0.85927    0.78797    1.06197   1.00
H3       0.84141    0.75285    0.94700   1.00
H3       0.89522    0.83979    1.01713   1.00
H3       0.88387    0.81757    0.94425   1.00
N1       0.67483    0.69366    0.99143   1.00
C6       0.66286    0.69484    1.02846   1.00
C6       0.64379    0.70171    0.96927   1.00
C6       0.62382    0.70426    1.03005   1.00
C6       0.61169    0.70864    0.99241   1.00
H3       0.68142    0.68949    1.05300   1.00
H3       0.64436    0.70287    0.93803   1.00
H3       0.60616    0.70760    1.05575   1.00
H3       0.58268    0.71602    0.98287   1.00
C4       0.74993    0.97915    0.74982   1.00
C4       0.75007    1.02085    0.75018   1.00
C3a      0.71877    0.95746    0.73264   1.00
C3       0.76125    1.04232    0.71688   1.00
C3       0.78087    0.95768    0.76644   1.00
C3a      0.73912    1.04254    0.78403   1.00
C2       0.75007    0.89488    0.74997   1.00
C2       0.75008    1.10512    0.74997   1.00
C3       0.71930    0.91595    0.73306   1.00
C3       0.76112    1.08363    0.71679   1.00
C3       0.78084    0.91637    0.76659   1.00
C3       0.73922    1.08405    0.78336   1.00
C5       0.68416    0.97772    0.71415   1.00
H1       0.76976    1.02691    0.69063   1.00
H1       0.69546    0.89979    0.72015   1.00
H1       0.76968    1.09901    0.69057   1.00
H1       0.80503    0.90099    0.77984   1.00
H1       0.73068    1.10021    0.80910   1.00
C5       0.72655    1.02228    0.82120   1.00
H1       0.80505    0.97309    0.77975   1.00
H2       0.70901    1.04256    0.83940   1.00
H2       0.70708    0.99731    0.81431   1.00
H2       0.65892    0.95744    0.71290   1.00
H2       0.67469    1.00269    0.73250   1.00
N1       0.76039    1.00857    0.84336   1.00
C6       0.78752    1.03073    0.86048   1.00
C6       0.76945    0.97154    0.85128   1.00
C6       0.81454    1.00759    0.87913   1.00
C6       0.80305    0.96995    0.87329   1.00
H3       0.78797    1.06197    0.85927   1.00
H3       0.75285    0.94700    0.84141   1.00
H3       0.83979    1.01713    0.89522   1.00
H3       0.81757    0.94425    0.88387   1.00
N1       0.69366    0.99143    0.67483   1.00
C6       0.69484    1.02846    0.66286   1.00
C6       0.70171    0.96927    0.64379   1.00
C6       0.70426    1.03005    0.62382   1.00
C6       0.70864    0.99241    0.61169   1.00
H3       0.68949    1.05300    0.68142   1.00
H3       0.70287    0.93803    0.64436   1.00
H3       0.70760    1.05575    0.60616   1.00
H3       0.71602    0.98287    0.58268   1.00
C4       0.52085    0.74982    0.75007   1.00
C4       0.47915    0.75018    0.74993   1.00
C3a      0.54254    0.73264    0.78123   1.00
C3       0.45768    0.71688    0.73875   1.00
C3       0.54232    0.76644    0.71913   1.00
C3a      0.45746    0.78403    0.76088   1.00
C2       0.60512    0.74997    0.74993   1.00
C2       0.39488    0.74997    0.74992   1.00
C3       0.58405    0.73306    0.78070   1.00
C3       0.41637    0.71679    0.73888   1.00
C3       0.58363    0.76659    0.71916   1.00
C3       0.41595    0.78336    0.76078   1.00
C5       0.52228    0.71415    0.81584   1.00
H1       0.47309    0.69063    0.73024   1.00
H1       0.60021    0.72015    0.80454   1.00
H1       0.40099    0.69057    0.73032   1.00
H1       0.59901    0.77984    0.69497   1.00
H1       0.39979    0.80910    0.76932   1.00
C5       0.47772    0.82120    0.77345   1.00
H1       0.52691    0.77975    0.69495   1.00
H2       0.45744    0.83940    0.79099   1.00
H2       0.50269    0.81431    0.79292   1.00
H2       0.54256    0.71290    0.84108   1.00
H2       0.49731    0.73250    0.82531   1.00
N1       0.49143    0.84336    0.73961   1.00
C6       0.46927    0.86048    0.71248   1.00
C6       0.52846    0.85128    0.73055   1.00
C6       0.49241    0.87913    0.68546   1.00
C6       0.53005    0.87329    0.69695   1.00
H3       0.43803    0.85927    0.71203   1.00
H3       0.55300    0.84141    0.74715   1.00
H3       0.48287    0.89522    0.66021   1.00
H3       0.55575    0.88387    0.68243   1.00
N1       0.50857    0.67483    0.80634   1.00
C6       0.47154    0.66286    0.80516   1.00
C6       0.53073    0.64379    0.79829   1.00
C6       0.46995    0.62382    0.79574   1.00
C6       0.50759    0.61169    0.79136   1.00
H3       0.44700    0.68142    0.81051   1.00
H3       0.56197    0.64436    0.79713   1.00
H3       0.44425    0.60616    0.79240   1.00
H3       0.51713    0.58268    0.78398   1.00
C4       0.97915    0.74982    0.74993   1.00
C4       1.02085    0.75018    0.75007   1.00
C3a      0.95746    0.73264    0.71877   1.00
C3       1.04232    0.71688    0.76125   1.00
C3       0.95768    0.76644    0.78087   1.00
C3a      1.04254    0.78403    0.73912   1.00
C2       0.89488    0.74997    0.75007   1.00
C2       1.10512    0.74997    0.75008   1.00
C3       0.91595    0.73306    0.71930   1.00
C3       1.08363    0.71679    0.76112   1.00
C3       0.91637    0.76659    0.78084   1.00
C3       1.08405    0.78336    0.73922   1.00
C5       0.97772    0.71415    0.68416   1.00
H1       1.02691    0.69063    0.76976   1.00
H1       0.89979    0.72015    0.69546   1.00
H1       1.09901    0.69057    0.76968   1.00
H1       0.90099    0.77984    0.80503   1.00
H1       1.10021    0.80910    0.73068   1.00
C5       1.02228    0.82120    0.72655   1.00
H1       0.97309    0.77975    0.80505   1.00
H2       1.04256    0.83940    0.70901   1.00
H2       0.99731    0.81431    0.70708   1.00
H2       0.95744    0.71290    0.65892   1.00
H2       1.00269    0.73250    0.67469   1.00
N1       1.00857    0.84336    0.76039   1.00
C6       1.03073    0.86048    0.78752   1.00
C6       0.97154    0.85128    0.76945   1.00
C6       1.00759    0.87913    0.81454   1.00
C6       0.96995    0.87329    0.80305   1.00
H3       1.06197    0.85927    0.78797   1.00
H3       0.94700    0.84141    0.75285   1.00
H3       1.01713    0.89522    0.83979   1.00
H3       0.94425    0.88387    0.81757   1.00
N1       0.99143    0.67483    0.69366   1.00
C6       1.02846    0.66286    0.69484   1.00
C6       0.96927    0.64379    0.70171   1.00
C6       1.03005    0.62382    0.70426   1.00
C6       0.99241    0.61169    0.70864   1.00
H3       1.05300    0.68142    0.68949   1.00
H3       0.93803    0.64436    0.70287   1.00
H3       1.05575    0.60616    0.70760   1.00
H3       0.98287    0.58268    0.71602   1.00
C4       0.75007    0.52085    0.74982   1.00
C4       0.74993    0.47915    0.75018   1.00
C3a      0.78123    0.54254    0.73264   1.00
C3       0.73875    0.45768    0.71688   1.00
C3       0.71913    0.54232    0.76644   1.00
C3a      0.76088    0.45746    0.78403   1.00
C2       0.74993    0.60512    0.74997   1.00
C2       0.74992    0.39488    0.74997   1.00
C3       0.78070    0.58405    0.73306   1.00
C3       0.73888    0.41637    0.71679   1.00
C3       0.71916    0.58363    0.76659   1.00
C3       0.76078    0.41595    0.78336   1.00
C5       0.81584    0.52228    0.71415   1.00
H1       0.73024    0.47309    0.69063   1.00
H1       0.80454    0.60021    0.72015   1.00
H1       0.73032    0.40099    0.69057   1.00
H1       0.69497    0.59901    0.77984   1.00
H1       0.76932    0.39979    0.80910   1.00
C5       0.77345    0.47772    0.82120   1.00
H1       0.69495    0.52691    0.77975   1.00
H2       0.79099    0.45744    0.83940   1.00
H2       0.79292    0.50269    0.81431   1.00
H2       0.84108    0.54256    0.71290   1.00
H2       0.82531    0.49731    0.73250   1.00
N1       0.73961    0.49143    0.84336   1.00
C6       0.71248    0.46927    0.86048   1.00
C6       0.73055    0.52846    0.85128   1.00
C6       0.68546    0.49241    0.87913   1.00
C6       0.69695    0.53005    0.87329   1.00
H3       0.71203    0.43803    0.85927   1.00
H3       0.74715    0.55300    0.84141   1.00
H3       0.66021    0.48287    0.89522   1.00
H3       0.68243    0.55575    0.88387   1.00
N1       0.80634    0.50857    0.67483   1.00
C6       0.80516    0.47154    0.66286   1.00
C6       0.79829    0.53073    0.64379   1.00
C6       0.79574    0.46995    0.62382   1.00
C6       0.79136    0.50759    0.61169   1.00
H3       0.81051    0.44700    0.68142   1.00
H3       0.79713    0.56197    0.64436   1.00
H3       0.79240    0.44425    0.60616   1.00
H3       0.78398    0.51713    0.58268   1.00
C4       0.74982    0.75007    0.52085   1.00
C4       0.75018    0.74993    0.47915   1.00
C3a      0.73264    0.78123    0.54254   1.00
C3       0.71688    0.73875    0.45768   1.00
C3       0.76644    0.71913    0.54232   1.00
C3a      0.78403    0.76088    0.45746   1.00
C2       0.74997    0.74993    0.60512   1.00
C2       0.74997    0.74992    0.39488   1.00
C3       0.73306    0.78070    0.58405   1.00
C3       0.71679    0.73888    0.41637   1.00
C3       0.76659    0.71916    0.58363   1.00
C3       0.78336    0.76078    0.41595   1.00
C5       0.71415    0.81584    0.52228   1.00
H1       0.69063    0.73024    0.47309   1.00
H1       0.72015    0.80454    0.60021   1.00
H1       0.69057    0.73032    0.40099   1.00
H1       0.77984    0.69497    0.59901   1.00
H1       0.80910    0.76932    0.39979   1.00
C5       0.82120    0.77345    0.47772   1.00
H1       0.77975    0.69495    0.52691   1.00
H2       0.83940    0.79099    0.45744   1.00
H2       0.81431    0.79292    0.50269   1.00
H2       0.71290    0.84108    0.54256   1.00
H2       0.73250    0.82531    0.49731   1.00
N1       0.84336    0.73961    0.49143   1.00
C6       0.86048    0.71248    0.46927   1.00
C6       0.85128    0.73055    0.52846   1.00
C6       0.87913    0.68546    0.49241   1.00
C6       0.87329    0.69695    0.53005   1.00
H3       0.85927    0.71203    0.43803   1.00
H3       0.84141    0.74715    0.55300   1.00
H3       0.89522    0.66021    0.48287   1.00
H3       0.88387    0.68243    0.55575   1.00
N1       0.67483    0.80634    0.50857   1.00
C6       0.66286    0.80516    0.47154   1.00
C6       0.64379    0.79829    0.53073   1.00
C6       0.62382    0.79574    0.46995   1.00
C6       0.61169    0.79136    0.50759   1.00
H3       0.68142    0.81051    0.44700   1.00
H3       0.64436    0.79713    0.56197   1.00
H3       0.60616    0.79240    0.44425   1.00
H3       0.58268    0.78398    0.51713   1.00
C4       0.24982    0.24993    0.97915   1.00
C4       0.25018    0.25007    1.02085   1.00
C3a      0.23264    0.21877    0.95746   1.00
C3       0.21688    0.26125    1.04232   1.00
C3       0.26644    0.28087    0.95768   1.00
C3a      0.28403    0.23912    1.04254   1.00
C2       0.24997    0.25007    0.89488   1.00
C2       0.24997    0.25008    1.10512   1.00
C3       0.23306    0.21930    0.91595   1.00
C3       0.21679    0.26112    1.08363   1.00
C3       0.26659    0.28084    0.91637   1.00
C3       0.28336    0.23922    1.08405   1.00
C5       0.21415    0.18416    0.97772   1.00
H1       0.19063    0.26976    1.02691   1.00
H1       0.22015    0.19546    0.89979   1.00
H1       0.19057    0.26968    1.09901   1.00
H1       0.27984    0.30503    0.90099   1.00
H1       0.30910    0.23068    1.10021   1.00
C5       0.32120    0.22655    1.02228   1.00
H1       0.27975    0.30505    0.97309   1.00
H2       0.33940    0.20901    1.04256   1.00
H2       0.31431    0.20708    0.99731   1.00
H2       0.21290    0.15892    0.95744   1.00
H2       0.23250    0.17469    1.00269   1.00
N1       0.34336    0.26039    1.00857   1.00
C6       0.36048    0.28752    1.03073   1.00
C6       0.35128    0.26945    0.97154   1.00
C6       0.37913    0.31454    1.00759   1.00
C6       0.37329    0.30305    0.96995   1.00
H3       0.35927    0.28797    1.06197   1.00
H3       0.34141    0.25285    0.94700   1.00
H3       0.39522    0.33979    1.01713   1.00
H3       0.38387    0.31757    0.94425   1.00
N1       0.17483    0.19366    0.99143   1.00
C6       0.16286    0.19484    1.02846   1.00
C6       0.14379    0.20171    0.96927   1.00
C6       0.12382    0.20426    1.03005   1.00
C6       0.11169    0.20864    0.99241   1.00
H3       0.18142    0.18949    1.05300   1.00
H3       0.14436    0.20287    0.93803   1.00
H3       0.10616    0.20760    1.05575   1.00
H3       0.08268    0.21602    0.98287   1.00
C4       0.24993    0.47915    0.74982   1.00
C4       0.25007    0.52085    0.75018   1.00
C3a      0.21877    0.45746    0.73264   1.00
C3       0.26125    0.54232    0.71688   1.00
C3       0.28087    0.45768    0.76644   1.00
C3a      0.23912    0.54254    0.78403   1.00
C2       0.25007    0.39488    0.74997   1.00
C2       0.25008    0.60512    0.74997   1.00
C3       0.21930    0.41595    0.73306   1.00
C3       0.26112    0.58363    0.71679   1.00
C3       0.28084    0.41637    0.76659   1.00
C3       0.23922    0.58405    0.78336   1.00
C5       0.18416    0.47772    0.71415   1.00
H1       0.26976    0.52691    0.69063   1.00
H1       0.19546    0.39979    0.72015   1.00
H1       0.26968    0.59901    0.69057   1.00
H1       0.30503    0.40099    0.77984   1.00
H1       0.23068    0.60021    0.80910   1.00
C5       0.22655    0.52228    0.82120   1.00
H1       0.30505    0.47309    0.77975   1.00
H2       0.20901    0.54256    0.83940   1.00
H2       0.20708    0.49731    0.81431   1.00
H2       0.15892    0.45744    0.71290   1.00
H2       0.17469    0.50269    0.73250   1.00
N1       0.26039    0.50857    0.84336   1.00
C6       0.28752    0.53073    0.86048   1.00
C6       0.26945    0.47154    0.85128   1.00
C6       0.31454    0.50759    0.87913   1.00
C6       0.30305    0.46995    0.87329   1.00
H3       0.28797    0.56197    0.85927   1.00
H3       0.25285    0.44700    0.84141   1.00
H3       0.33979    0.51713    0.89522   1.00
H3       0.31757    0.44425    0.88387   1.00
N1       0.19366    0.49143    0.67483   1.00
C6       0.19484    0.52846    0.66286   1.00
C6       0.20171    0.46927    0.64379   1.00
C6       0.20426    0.53005    0.62382   1.00
C6       0.20864    0.49241    0.61169   1.00
H3       0.18949    0.55300    0.68142   1.00
H3       0.20287    0.43803    0.64436   1.00
H3       0.20760    0.55575    0.60616   1.00
H3       0.21602    0.48287    0.58268   1.00
C4       0.02085    0.24982    0.75007   1.00
C4       -0.02085   0.25018    0.74993   1.00
C3a      0.04254    0.23264    0.78123   1.00
C3       -0.04232   0.21688    0.73875   1.00
C3       0.04232    0.26644    0.71913   1.00
C3a      -0.04254   0.28403    0.76088   1.00
C2       0.10512    0.24997    0.74993   1.00
C2       -0.10512   0.24997    0.74992   1.00
C3       0.08405    0.23306    0.78070   1.00
C3       -0.08363   0.21679    0.73888   1.00
C3       0.08363    0.26659    0.71916   1.00
C3       -0.08405   0.28336    0.76078   1.00
C5       0.02228    0.21415    0.81584   1.00
H1       -0.02691   0.19063    0.73024   1.00
H1       0.10021    0.22015    0.80454   1.00
H1       -0.09901   0.19057    0.73032   1.00
H1       0.09901    0.27984    0.69497   1.00
H1       -0.10021   0.30910    0.76932   1.00
C5       -0.02228   0.32120    0.77345   1.00
H1       0.02691    0.27975    0.69495   1.00
H2       -0.04256   0.33940    0.79099   1.00
H2       0.00269    0.31431    0.79292   1.00
H2       0.04256    0.21290    0.84108   1.00
H2       -0.00269   0.23250    0.82531   1.00
N1       -0.00857   0.34336    0.73961   1.00
C6       -0.03073   0.36048    0.71248   1.00
C6       0.02846    0.35128    0.73055   1.00
C6       -0.00759   0.37913    0.68546   1.00
C6       0.03005    0.37329    0.69695   1.00
H3       -0.06197   0.35927    0.71203   1.00
H3       0.05300    0.34141    0.74715   1.00
H3       -0.01713   0.39522    0.66021   1.00
H3       0.05575    0.38387    0.68243   1.00
N1       0.00857    0.17483    0.80634   1.00
C6       -0.02846   0.16286    0.80516   1.00
C6       0.03073    0.14379    0.79829   1.00
C6       -0.03005   0.12382    0.79574   1.00
C6       0.00759    0.11169    0.79136   1.00
H3       -0.05300   0.18142    0.81051   1.00
H3       0.06197    0.14436    0.79713   1.00
H3       -0.05575   0.10616    0.79240   1.00
H3       0.01713    0.08268    0.78398   1.00
C4       0.47915    0.24982    0.74993   1.00
C4       0.52085    0.25018    0.75007   1.00
C3a      0.45746    0.23264    0.71877   1.00
C3       0.54232    0.21688    0.76125   1.00
C3       0.45768    0.26644    0.78087   1.00
C3a      0.54254    0.28403    0.73912   1.00
C2       0.39488    0.24997    0.75007   1.00
C2       0.60512    0.24997    0.75008   1.00
C3       0.41595    0.23306    0.71930   1.00
C3       0.58363    0.21679    0.76112   1.00
C3       0.41637    0.26659    0.78084   1.00
C3       0.58405    0.28336    0.73922   1.00
C5       0.47772    0.21415    0.68416   1.00
H1       0.52691    0.19063    0.76976   1.00
H1       0.39979    0.22015    0.69546   1.00
H1       0.59901    0.19057    0.76968   1.00
H1       0.40099    0.27984    0.80503   1.00
H1       0.60021    0.30910    0.73068   1.00
C5       0.52228    0.32120    0.72655   1.00
H1       0.47309    0.27975    0.80505   1.00
H2       0.54256    0.33940    0.70901   1.00
H2       0.49731    0.31431    0.70708   1.00
H2       0.45744    0.21290    0.65892   1.00
H2       0.50269    0.23250    0.67469   1.00
N1       0.50857    0.34336    0.76039   1.00
C6       0.53073    0.36048    0.78752   1.00
C6       0.47154    0.35128    0.76945   1.00
C6       0.50759    0.37913    0.81454   1.00
C6       0.46995    0.37329    0.80305   1.00
H3       0.56197    0.35927    0.78797   1.00
H3       0.44700    0.34141    0.75285   1.00
H3       0.51713    0.39522    0.83979   1.00
H3       0.44425    0.38387    0.81757   1.00
N1       0.49143    0.17483    0.69366   1.00
C6       0.52846    0.16286    0.69484   1.00
C6       0.46927    0.14379    0.70171   1.00
C6       0.53005    0.12382    0.70426   1.00
C6       0.49241    0.11169    0.70864   1.00
H3       0.55300    0.18142    0.68949   1.00
H3       0.43803    0.14436    0.70287   1.00
H3       0.55575    0.10616    0.70760   1.00
H3       0.48287    0.08268    0.71602   1.00
C4       0.25007    0.02085    0.74982   1.00
C4       0.24993    -0.02085   0.75018   1.00
C3a      0.28123    0.04254    0.73264   1.00
C3       0.23875    -0.04232   0.71688   1.00
C3       0.21913    0.04232    0.76644   1.00
C3a      0.26088    -0.04254   0.78403   1.00
C2       0.24993    0.10512    0.74997   1.00
C2       0.24992    -0.10512   0.74997   1.00
C3       0.28070    0.08405    0.73306   1.00
C3       0.23888    -0.08363   0.71679   1.00
C3       0.21916    0.08363    0.76659   1.00
C3       0.26078    -0.08405   0.78336   1.00
C5       0.31584    0.02228    0.71415   1.00
H1       0.23024    -0.02691   0.69063   1.00
H1       0.30454    0.10021    0.72015   1.00
H1       0.23032    -0.09901   0.69057   1.00
H1       0.19497    0.09901    0.77984   1.00
H1       0.26932    -0.10021   0.80910   1.00
C5       0.27345    -0.02228   0.82120   1.00
H1       0.19495    0.02691    0.77975   1.00
H2       0.29099    -0.04256   0.83940   1.00
H2       0.29292    0.00269    0.81431   1.00
H2       0.34108    0.04256    0.71290   1.00
H2       0.32531    -0.00269   0.73250   1.00
N1       0.23961    -0.00857   0.84336   1.00
C6       0.21248    -0.03073   0.86048   1.00
C6       0.23055    0.02846    0.85128   1.00
C6       0.18546    -0.00759   0.87913   1.00
C6       0.19695    0.03005    0.87329   1.00
H3       0.21203    -0.06197   0.85927   1.00
H3       0.24715    0.05300    0.84141   1.00
H3       0.16021    -0.01713   0.89522   1.00
H3       0.18243    0.05575    0.88387   1.00
N1       0.30634    0.00857    0.67483   1.00
C6       0.30516    -0.02846   0.66286   1.00
C6       0.29829    0.03073    0.64379   1.00
C6       0.29574    -0.03005   0.62382   1.00
C6       0.29136    0.00759    0.61169   1.00
H3       0.31051    -0.05300   0.68142   1.00
H3       0.29713    0.06197    0.64436   1.00
H3       0.29240    -0.05575   0.60616   1.00
H3       0.28398    0.01713    0.58268   1.00
C4       0.24982    0.25007    0.52085   1.00
C4       0.25018    0.24993    0.47915   1.00
C3a      0.23264    0.28123    0.54254   1.00
C3       0.21688    0.23875    0.45768   1.00
C3       0.26644    0.21913    0.54232   1.00
C3a      0.28403    0.26088    0.45746   1.00
C2       0.24997    0.24993    0.60512   1.00
C2       0.24997    0.24992    0.39488   1.00
C3       0.23306    0.28070    0.58405   1.00
C3       0.21679    0.23888    0.41637   1.00
C3       0.26659    0.21916    0.58363   1.00
C3       0.28336    0.26078    0.41595   1.00
C5       0.21415    0.31584    0.52228   1.00
H1       0.19063    0.23024    0.47309   1.00
H1       0.22015    0.30454    0.60021   1.00
H1       0.19057    0.23032    0.40099   1.00
H1       0.27984    0.19497    0.59901   1.00
H1       0.30910    0.26932    0.39979   1.00
C5       0.32120    0.27345    0.47772   1.00
H1       0.27975    0.19495    0.52691   1.00
H2       0.33940    0.29099    0.45744   1.00
H2       0.31431    0.29292    0.50269   1.00
H2       0.21290    0.34108    0.54256   1.00
H2       0.23250    0.32531    0.49731   1.00
N1       0.34336    0.23961    0.49143   1.00
C6       0.36048    0.21248    0.46927   1.00
C6       0.35128    0.23055    0.52846   1.00
C6       0.37913    0.18546    0.49241   1.00
C6       0.37329    0.19695    0.53005   1.00
H3       0.35927    0.21203    0.43803   1.00
H3       0.34141    0.24715    0.55300   1.00
H3       0.39522    0.16021    0.48287   1.00
H3       0.38387    0.18243    0.55575   1.00
N1       0.17483    0.30634    0.50857   1.00
C6       0.16286    0.30516    0.47154   1.00
C6       0.14379    0.29829    0.53073   1.00
C6       0.12382    0.29574    0.46995   1.00
C6       0.11169    0.29136    0.50759   1.00
H3       0.18142    0.31051    0.44700   1.00
H3       0.14436    0.29713    0.56197   1.00
H3       0.10616    0.29240    0.44425   1.00
H3       0.08268    0.28398    0.51713   1.00
C4       0.24982    0.74993    0.47915   1.00
C4       0.25018    0.75007    0.52085   1.00
C3a      0.23264    0.71877    0.45746   1.00
C3       0.21688    0.76125    0.54232   1.00
C3       0.26644    0.78087    0.45768   1.00
C3a      0.28403    0.73912    0.54254   1.00
C2       0.24997    0.75007    0.39488   1.00
C2       0.24997    0.75008    0.60512   1.00
C3       0.23306    0.71930    0.41595   1.00
C3       0.21679    0.76112    0.58363   1.00
C3       0.26659    0.78084    0.41637   1.00
C3       0.28336    0.73922    0.58405   1.00
C5       0.21415    0.68416    0.47772   1.00
H1       0.19063    0.76976    0.52691   1.00
H1       0.22015    0.69546    0.39979   1.00
H1       0.19057    0.76968    0.59901   1.00
H1       0.27984    0.80503    0.40099   1.00
H1       0.30910    0.73068    0.60021   1.00
C5       0.32120    0.72655    0.52228   1.00
H1       0.27975    0.80505    0.47309   1.00
H2       0.33940    0.70901    0.54256   1.00
H2       0.31431    0.70708    0.49731   1.00
H2       0.21290    0.65892    0.45744   1.00
H2       0.23250    0.67469    0.50269   1.00
N1       0.34336    0.76039    0.50857   1.00
C6       0.36048    0.78752    0.53073   1.00
C6       0.35128    0.76945    0.47154   1.00
C6       0.37913    0.81454    0.50759   1.00
C6       0.37329    0.80305    0.46995   1.00
H3       0.35927    0.78797    0.56197   1.00
H3       0.34141    0.75285    0.44700   1.00
H3       0.39522    0.83979    0.51713   1.00
H3       0.38387    0.81757    0.44425   1.00
N1       0.17483    0.69366    0.49143   1.00
C6       0.16286    0.69484    0.52846   1.00
C6       0.14379    0.70171    0.46927   1.00
C6       0.12382    0.70426    0.53005   1.00
C6       0.11169    0.70864    0.49241   1.00
H3       0.18142    0.68949    0.55300   1.00
H3       0.14436    0.70287    0.43803   1.00
H3       0.10616    0.70760    0.55575   1.00
H3       0.08268    0.71602    0.48287   1.00
C4       0.24993    0.97915    0.24982   1.00
C4       0.25007    1.02085    0.25018   1.00
C3a      0.21877    0.95746    0.23264   1.00
C3       0.26125    1.04232    0.21688   1.00
C3       0.28087    0.95768    0.26644   1.00
C3a      0.23912    1.04254    0.28403   1.00
C2       0.25007    0.89488    0.24997   1.00
C2       0.25008    1.10512    0.24997   1.00
C3       0.21930    0.91595    0.23306   1.00
C3       0.26112    1.08363    0.21679   1.00
C3       0.28084    0.91637    0.26659   1.00
C3       0.23922    1.08405    0.28336   1.00
C5       0.18416    0.97772    0.21415   1.00
H1       0.26976    1.02691    0.19063   1.00
H1       0.19546    0.89979    0.22015   1.00
H1       0.26968    1.09901    0.19057   1.00
H1       0.30503    0.90099    0.27984   1.00
H1       0.23068    1.10021    0.30910   1.00
C5       0.22655    1.02228    0.32120   1.00
H1       0.30505    0.97309    0.27975   1.00
H2       0.20901    1.04256    0.33940   1.00
H2       0.20708    0.99731    0.31431   1.00
H2       0.15892    0.95744    0.21290   1.00
H2       0.17469    1.00269    0.23250   1.00
N1       0.26039    1.00857    0.34336   1.00
C6       0.28752    1.03073    0.36048   1.00
C6       0.26945    0.97154    0.35128   1.00
C6       0.31454    1.00759    0.37913   1.00
C6       0.30305    0.96995    0.37329   1.00
H3       0.28797    1.06197    0.35927   1.00
H3       0.25285    0.94700    0.34141   1.00
H3       0.33979    1.01713    0.39522   1.00
H3       0.31757    0.94425    0.38387   1.00
N1       0.19366    0.99143    0.17483   1.00
C6       0.19484    1.02846    0.16286   1.00
C6       0.20171    0.96927    0.14379   1.00
C6       0.20426    1.03005    0.12382   1.00
C6       0.20864    0.99241    0.11169   1.00
H3       0.18949    1.05300    0.18142   1.00
H3       0.20287    0.93803    0.14436   1.00
H3       0.20760    1.05575    0.10616   1.00
H3       0.21602    0.98287    0.08268   1.00
C4       0.02085    0.74982    0.25007   1.00
C4       -0.02085   0.75018    0.24993   1.00
C3a      0.04254    0.73264    0.28123   1.00
C3       -0.04232   0.71688    0.23875   1.00
C3       0.04232    0.76644    0.21913   1.00
C3a      -0.04254   0.78403    0.26088   1.00
C2       0.10512    0.74997    0.24993   1.00
C2       -0.10512   0.74997    0.24992   1.00
C3       0.08405    0.73306    0.28070   1.00
C3       -0.08363   0.71679    0.23888   1.00
C3       0.08363    0.76659    0.21916   1.00
C3       -0.08405   0.78336    0.26078   1.00
C5       0.02228    0.71415    0.31584   1.00
H1       -0.02691   0.69063    0.23024   1.00
H1       0.10021    0.72015    0.30454   1.00
H1       -0.09901   0.69057    0.23032   1.00
H1       0.09901    0.77984    0.19497   1.00
H1       -0.10021   0.80910    0.26932   1.00
C5       -0.02228   0.82120    0.27345   1.00
H1       0.02691    0.77975    0.19495   1.00
H2       -0.04256   0.83940    0.29099   1.00
H2       0.00269    0.81431    0.29292   1.00
H2       0.04256    0.71290    0.34108   1.00
H2       -0.00269   0.73250    0.32531   1.00
N1       -0.00857   0.84336    0.23961   1.00
C6       -0.03073   0.86048    0.21248   1.00
C6       0.02846    0.85128    0.23055   1.00
C6       -0.00759   0.87913    0.18546   1.00
C6       0.03005    0.87329    0.19695   1.00
H3       -0.06197   0.85927    0.21203   1.00
H3       0.05300    0.84141    0.24715   1.00
H3       -0.01713   0.89522    0.16021   1.00
H3       0.05575    0.88387    0.18243   1.00
N1       0.00857    0.67483    0.30634   1.00
C6       -0.02846   0.66286    0.30516   1.00
C6       0.03073    0.64379    0.29829   1.00
C6       -0.03005   0.62382    0.29574   1.00
C6       0.00759    0.61169    0.29136   1.00
H3       -0.05300   0.68142    0.31051   1.00
H3       0.06197    0.64436    0.29713   1.00
H3       -0.05575   0.60616    0.29240   1.00
H3       0.01713    0.58268    0.28398   1.00
C4       0.47915    0.74982    0.24993   1.00
C4       0.52085    0.75018    0.25007   1.00
C3a      0.45746    0.73264    0.21877   1.00
C3       0.54232    0.71688    0.26125   1.00
C3       0.45768    0.76644    0.28087   1.00
C3a      0.54254    0.78403    0.23912   1.00
C2       0.39488    0.74997    0.25007   1.00
C2       0.60512    0.74997    0.25008   1.00
C3       0.41595    0.73306    0.21930   1.00
C3       0.58363    0.71679    0.26112   1.00
C3       0.41637    0.76659    0.28084   1.00
C3       0.58405    0.78336    0.23922   1.00
C5       0.47772    0.71415    0.18416   1.00
H1       0.52691    0.69063    0.26976   1.00
H1       0.39979    0.72015    0.19546   1.00
H1       0.59901    0.69057    0.26968   1.00
H1       0.40099    0.77984    0.30503   1.00
H1       0.60021    0.80910    0.23068   1.00
C5       0.52228    0.82120    0.22655   1.00
H1       0.47309    0.77975    0.30505   1.00
H2       0.54256    0.83940    0.20901   1.00
H2       0.49731    0.81431    0.20708   1.00
H2       0.45744    0.71290    0.15892   1.00
H2       0.50269    0.73250    0.17469   1.00
N1       0.50857    0.84336    0.26039   1.00
C6       0.53073    0.86048    0.28752   1.00
C6       0.47154    0.85128    0.26945   1.00
C6       0.50759    0.87913    0.31454   1.00
C6       0.46995    0.87329    0.30305   1.00
H3       0.56197    0.85927    0.28797   1.00
H3       0.44700    0.84141    0.25285   1.00
H3       0.51713    0.89522    0.33979   1.00
H3       0.44425    0.88387    0.31757   1.00
N1       0.49143    0.67483    0.19366   1.00
C6       0.52846    0.66286    0.19484   1.00
C6       0.46927    0.64379    0.20171   1.00
C6       0.53005    0.62382    0.20426   1.00
C6       0.49241    0.61169    0.20864   1.00
H3       0.55300    0.68142    0.18949   1.00
H3       0.43803    0.64436    0.20287   1.00
H3       0.55575    0.60616    0.20760   1.00
H3       0.48287    0.58268    0.21602   1.00
C4       0.25007    0.52085    0.24982   1.00
C4       0.24993    0.47915    0.25018   1.00
C3a      0.28123    0.54254    0.23264   1.00
C3       0.23875    0.45768    0.21688   1.00
C3       0.21913    0.54232    0.26644   1.00
C3a      0.26088    0.45746    0.28403   1.00
C2       0.24993    0.60512    0.24997   1.00
C2       0.24992    0.39488    0.24997   1.00
C3       0.28070    0.58405    0.23306   1.00
C3       0.23888    0.41637    0.21679   1.00
C3       0.21916    0.58363    0.26659   1.00
C3       0.26078    0.41595    0.28336   1.00
C5       0.31584    0.52228    0.21415   1.00
H1       0.23024    0.47309    0.19063   1.00
H1       0.30454    0.60021    0.22015   1.00
H1       0.23032    0.40099    0.19057   1.00
H1       0.19497    0.59901    0.27984   1.00
H1       0.26932    0.39979    0.30910   1.00
C5       0.27345    0.47772    0.32120   1.00
H1       0.19495    0.52691    0.27975   1.00
H2       0.29099    0.45744    0.33940   1.00
H2       0.29292    0.50269    0.31431   1.00
H2       0.34108    0.54256    0.21290   1.00
H2       0.32531    0.49731    0.23250   1.00
N1       0.23961    0.49143    0.34336   1.00
C6       0.21248    0.46927    0.36048   1.00
C6       0.23055    0.52846    0.35128   1.00
C6       0.18546    0.49241    0.37913   1.00
C6       0.19695    0.53005    0.37329   1.00
H3       0.21203    0.43803    0.35927   1.00
H3       0.24715    0.55300    0.34141   1.00
H3       0.16021    0.48287    0.39522   1.00
H3       0.18243    0.55575    0.38387   1.00
N1       0.30634    0.50857    0.17483   1.00
C6       0.30516    0.47154    0.16286   1.00
C6       0.29829    0.53073    0.14379   1.00
C6       0.29574    0.46995    0.12382   1.00
C6       0.29136    0.50759    0.11169   1.00
H3       0.31051    0.44700    0.18142   1.00
H3       0.29713    0.56197    0.14436   1.00
H3       0.29240    0.44425    0.10616   1.00
H3       0.28398    0.51713    0.08268   1.00
C4       0.24982    0.75007    0.02085   1.00
C4       0.25018    0.74993    -0.02085   1.00
C3a      0.23264    0.78123    0.04254   1.00
C3       0.21688    0.73875    -0.04232   1.00
C3       0.26644    0.71913    0.04232   1.00
C3a      0.28403    0.76088    -0.04254   1.00
C2       0.24997    0.74993    0.10512   1.00
C2       0.24997    0.74992    -0.10512   1.00
C3       0.23306    0.78070    0.08405   1.00
C3       0.21679    0.73888    -0.08363   1.00
C3       0.26659    0.71916    0.08363   1.00
C3       0.28336    0.76078    -0.08405   1.00
C5       0.21415    0.81584    0.02228   1.00
H1       0.19063    0.73024    -0.02691   1.00
H1       0.22015    0.80454    0.10021   1.00
H1       0.19057    0.73032    -0.09901   1.00
H1       0.27984    0.69497    0.09901   1.00
H1       0.30910    0.76932    -0.10021   1.00
C5       0.32120    0.77345    -0.02228   1.00
H1       0.27975    0.69495    0.02691   1.00
H2       0.33940    0.79099    -0.04256   1.00
H2       0.31431    0.79292    0.00269   1.00
H2       0.21290    0.84108    0.04256   1.00
H2       0.23250    0.82531    -0.00269   1.00
N1       0.34336    0.73961    -0.00857   1.00
C6       0.36048    0.71248    -0.03073   1.00
C6       0.35128    0.73055    0.02846   1.00
C6       0.37913    0.68546    -0.00759   1.00
C6       0.37329    0.69695    0.03005   1.00
H3       0.35927    0.71203    -0.06197   1.00
H3       0.34141    0.74715    0.05300   1.00
H3       0.39522    0.66021    -0.01713   1.00
H3       0.38387    0.68243    0.05575   1.00
N1       0.17483    0.80634    0.00857   1.00
C6       0.16286    0.80516    -0.02846   1.00
C6       0.14379    0.79829    0.03073   1.00
C6       0.12382    0.79574    -0.03005   1.00
C6       0.11169    0.79136    0.00759   1.00
H3       0.18142    0.81051    -0.05300   1.00
H3       0.14436    0.79713    0.06197   1.00
H3       0.10616    0.79240    -0.05575   1.00
H3       0.08268    0.78398    0.01713   1.00
C4       0.74982    0.24993    0.47915   1.00
C4       0.75018    0.25007    0.52085   1.00
C3a      0.73264    0.21877    0.45746   1.00
C3       0.71688    0.26125    0.54232   1.00
C3       0.76644    0.28087    0.45768   1.00
C3a      0.78403    0.23912    0.54254   1.00
C2       0.74997    0.25007    0.39488   1.00
C2       0.74997    0.25008    0.60512   1.00
C3       0.73306    0.21930    0.41595   1.00
C3       0.71679    0.26112    0.58363   1.00
C3       0.76659    0.28084    0.41637   1.00
C3       0.78336    0.23922    0.58405   1.00
C5       0.71415    0.18416    0.47772   1.00
H1       0.69063    0.26976    0.52691   1.00
H1       0.72015    0.19546    0.39979   1.00
H1       0.69057    0.26968    0.59901   1.00
H1       0.77984    0.30503    0.40099   1.00
H1       0.80910    0.23068    0.60021   1.00
C5       0.82120    0.22655    0.52228   1.00
H1       0.77975    0.30505    0.47309   1.00
H2       0.83940    0.20901    0.54256   1.00
H2       0.81431    0.20708    0.49731   1.00
H2       0.71290    0.15892    0.45744   1.00
H2       0.73250    0.17469    0.50269   1.00
N1       0.84336    0.26039    0.50857   1.00
C6       0.86048    0.28752    0.53073   1.00
C6       0.85128    0.26945    0.47154   1.00
C6       0.87913    0.31454    0.50759   1.00
C6       0.87329    0.30305    0.46995   1.00
H3       0.85927    0.28797    0.56197   1.00
H3       0.84141    0.25285    0.44700   1.00
H3       0.89522    0.33979    0.51713   1.00
H3       0.88387    0.31757    0.44425   1.00
N1       0.67483    0.19366    0.49143   1.00
C6       0.66286    0.19484    0.52846   1.00
C6       0.64379    0.20171    0.46927   1.00
C6       0.62382    0.20426    0.53005   1.00
C6       0.61169    0.20864    0.49241   1.00
H3       0.68142    0.18949    0.55300   1.00
H3       0.64436    0.20287    0.43803   1.00
H3       0.60616    0.20760    0.55575   1.00
H3       0.58268    0.21602    0.48287   1.00
C4       0.74993    0.47915    0.24982   1.00
C4       0.75007    0.52085    0.25018   1.00
C3a      0.71877    0.45746    0.23264   1.00
C3       0.76125    0.54232    0.21688   1.00
C3       0.78087    0.45768    0.26644   1.00
C3a      0.73912    0.54254    0.28403   1.00
C2       0.75007    0.39488    0.24997   1.00
C2       0.75008    0.60512    0.24997   1.00
C3       0.71930    0.41595    0.23306   1.00
C3       0.76112    0.58363    0.21679   1.00
C3       0.78084    0.41637    0.26659   1.00
C3       0.73922    0.58405    0.28336   1.00
C5       0.68416    0.47772    0.21415   1.00
H1       0.76976    0.52691    0.19063   1.00
H1       0.69546    0.39979    0.22015   1.00
H1       0.76968    0.59901    0.19057   1.00
H1       0.80503    0.40099    0.27984   1.00
H1       0.73068    0.60021    0.30910   1.00
C5       0.72655    0.52228    0.32120   1.00
H1       0.80505    0.47309    0.27975   1.00
H2       0.70901    0.54256    0.33940   1.00
H2       0.70708    0.49731    0.31431   1.00
H2       0.65892    0.45744    0.21290   1.00
H2       0.67469    0.50269    0.23250   1.00
N1       0.76039    0.50857    0.34336   1.00
C6       0.78752    0.53073    0.36048   1.00
C6       0.76945    0.47154    0.35128   1.00
C6       0.81454    0.50759    0.37913   1.00
C6       0.80305    0.46995    0.37329   1.00
H3       0.78797    0.56197    0.35927   1.00
H3       0.75285    0.44700    0.34141   1.00
H3       0.83979    0.51713    0.39522   1.00
H3       0.81757    0.44425    0.38387   1.00
N1       0.69366    0.49143    0.17483   1.00
C6       0.69484    0.52846    0.16286   1.00
C6       0.70171    0.46927    0.14379   1.00
C6       0.70426    0.53005    0.12382   1.00
C6       0.70864    0.49241    0.11169   1.00
H3       0.68949    0.55300    0.18142   1.00
H3       0.70287    0.43803    0.14436   1.00
H3       0.70760    0.55575    0.10616   1.00
H3       0.71602    0.48287    0.08268   1.00
C4       0.52085    0.24982    0.25007   1.00
C4       0.47915    0.25018    0.24993   1.00
C3a      0.54254    0.23264    0.28123   1.00
C3       0.45768    0.21688    0.23875   1.00
C3       0.54232    0.26644    0.21913   1.00
C3a      0.45746    0.28403    0.26088   1.00
C2       0.60512    0.24997    0.24993   1.00
C2       0.39488    0.24997    0.24992   1.00
C3       0.58405    0.23306    0.28070   1.00
C3       0.41637    0.21679    0.23888   1.00
C3       0.58363    0.26659    0.21916   1.00
C3       0.41595    0.28336    0.26078   1.00
C5       0.52228    0.21415    0.31584   1.00
H1       0.47309    0.19063    0.23024   1.00
H1       0.60021    0.22015    0.30454   1.00
H1       0.40099    0.19057    0.23032   1.00
H1       0.59901    0.27984    0.19497   1.00
H1       0.39979    0.30910    0.26932   1.00
C5       0.47772    0.32120    0.27345   1.00
H1       0.52691    0.27975    0.19495   1.00
H2       0.45744    0.33940    0.29099   1.00
H2       0.50269    0.31431    0.29292   1.00
H2       0.54256    0.21290    0.34108   1.00
H2       0.49731    0.23250    0.32531   1.00
N1       0.49143    0.34336    0.23961   1.00
C6       0.46927    0.36048    0.21248   1.00
C6       0.52846    0.35128    0.23055   1.00
C6       0.49241    0.37913    0.18546   1.00
C6       0.53005    0.37329    0.19695   1.00
H3       0.43803    0.35927    0.21203   1.00
H3       0.55300    0.34141    0.24715   1.00
H3       0.48287    0.39522    0.16021   1.00
H3       0.55575    0.38387    0.18243   1.00
N1       0.50857    0.17483    0.30634   1.00
C6       0.47154    0.16286    0.30516   1.00
C6       0.53073    0.14379    0.29829   1.00
C6       0.46995    0.12382    0.29574   1.00
C6       0.50759    0.11169    0.29136   1.00
H3       0.44700    0.18142    0.31051   1.00
H3       0.56197    0.14436    0.29713   1.00
H3       0.44425    0.10616    0.29240   1.00
H3       0.51713    0.08268    0.28398   1.00
C4       0.97915    0.24982    0.24993   1.00
C4       1.02085    0.25018    0.25007   1.00
C3a      0.95746    0.23264    0.21877   1.00
C3       1.04232    0.21688    0.26125   1.00
C3       0.95768    0.26644    0.28087   1.00
C3a      1.04254    0.28403    0.23912   1.00
C2       0.89488    0.24997    0.25007   1.00
C2       1.10512    0.24997    0.25008   1.00
C3       0.91595    0.23306    0.21930   1.00
C3       1.08363    0.21679    0.26112   1.00
C3       0.91637    0.26659    0.28084   1.00
C3       1.08405    0.28336    0.23922   1.00
C5       0.97772    0.21415    0.18416   1.00
H1       1.02691    0.19063    0.26976   1.00
H1       0.89979    0.22015    0.19546   1.00
H1       1.09901    0.19057    0.26968   1.00
H1       0.90099    0.27984    0.30503   1.00
H1       1.10021    0.30910    0.23068   1.00
C5       1.02228    0.32120    0.22655   1.00
H1       0.97309    0.27975    0.30505   1.00
H2       1.04256    0.33940    0.20901   1.00
H2       0.99731    0.31431    0.20708   1.00
H2       0.95744    0.21290    0.15892   1.00
H2       1.00269    0.23250    0.17469   1.00
N1       1.00857    0.34336    0.26039   1.00
C6       1.03073    0.36048    0.28752   1.00
C6       0.97154    0.35128    0.26945   1.00
C6       1.00759    0.37913    0.31454   1.00
C6       0.96995    0.37329    0.30305   1.00
H3       1.06197    0.35927    0.28797   1.00
H3       0.94700    0.34141    0.25285   1.00
H3       1.01713    0.39522    0.33979   1.00
H3       0.94425    0.38387    0.31757   1.00
N1       0.99143    0.17483    0.19366   1.00
C6       1.02846    0.16286    0.19484   1.00
C6       0.96927    0.14379    0.20171   1.00
C6       1.03005    0.12382    0.20426   1.00
C6       0.99241    0.11169    0.20864   1.00
H3       1.05300    0.18142    0.18949   1.00
H3       0.93803    0.14436    0.20287   1.00
H3       1.05575    0.10616    0.20760   1.00
H3       0.98287    0.08268    0.21602   1.00
C4       0.75007    0.02085    0.24982   1.00
C4       0.74993    -0.02085   0.25018   1.00
C3a      0.78123    0.04254    0.23264   1.00
C3       0.73875    -0.04232   0.21688   1.00
C3       0.71913    0.04232    0.26644   1.00
C3a      0.76088    -0.04254   0.28403   1.00
C2       0.74993    0.10512    0.24997   1.00
C2       0.74992    -0.10512   0.24997   1.00
C3       0.78070    0.08405    0.23306   1.00
C3       0.73888    -0.08363   0.21679   1.00
C3       0.71916    0.08363    0.26659   1.00
C3       0.76078    -0.08405   0.28336   1.00
C5       0.81584    0.02228    0.21415   1.00
H1       0.73024    -0.02691   0.19063   1.00
H1       0.80454    0.10021    0.22015   1.00
H1       0.73032    -0.09901   0.19057   1.00
H1       0.69497    0.09901    0.27984   1.00
H1       0.76932    -0.10021   0.30910   1.00
C5       0.77345    -0.02228   0.32120   1.00
H1       0.69495    0.02691    0.27975   1.00
H2       0.79099    -0.04256   0.33940   1.00
H2       0.79292    0.00269    0.31431   1.00
H2       0.84108    0.04256    0.21290   1.00
H2       0.82531    -0.00269   0.23250   1.00
N1       0.73961    -0.00857   0.34336   1.00
C6       0.71248    -0.03073   0.36048   1.00
C6       0.73055    0.02846    0.35128   1.00
C6       0.68546    -0.00759   0.37913   1.00
C6       0.69695    0.03005    0.37329   1.00
H3       0.71203    -0.06197   0.35927   1.00
H3       0.74715    0.05300    0.34141   1.00
H3       0.66021    -0.01713   0.39522   1.00
H3       0.68243    0.05575    0.38387   1.00
N1       0.80634    0.00857    0.17483   1.00
C6       0.80516    -0.02846   0.16286   1.00
C6       0.79829    0.03073    0.14379   1.00
C6       0.79574    -0.03005   0.12382   1.00
C6       0.79136    0.00759    0.11169   1.00
H3       0.81051    -0.05300   0.18142   1.00
H3       0.79713    0.06197    0.14436   1.00
H3       0.79240    -0.05575   0.10616   1.00
H3       0.78398    0.01713    0.08268   1.00
C4       0.74982    0.25007    0.02085   1.00
C4       0.75018    0.24993    -0.02085   1.00
C3a      0.73264    0.28123    0.04254   1.00
C3       0.71688    0.23875    -0.04232   1.00
C3       0.76644    0.21913    0.04232   1.00
C3a      0.78403    0.26088    -0.04254   1.00
C2       0.74997    0.24993    0.10512   1.00
C2       0.74997    0.24992    -0.10512   1.00
C3       0.73306    0.28070    0.08405   1.00
C3       0.71679    0.23888    -0.08363   1.00
C3       0.76659    0.21916    0.08363   1.00
C3       0.78336    0.26078    -0.08405   1.00
C5       0.71415    0.31584    0.02228   1.00
H1       0.69063    0.23024    -0.02691   1.00
H1       0.72015    0.30454    0.10021   1.00
H1       0.69057    0.23032    -0.09901   1.00
H1       0.77984    0.19497    0.09901   1.00
H1       0.80910    0.26932    -0.10021   1.00
C5       0.82120    0.27345    -0.02228   1.00
H1       0.77975    0.19495    0.02691   1.00
H2       0.83940    0.29099    -0.04256   1.00
H2       0.81431    0.29292    0.00269   1.00
H2       0.71290    0.34108    0.04256   1.00
H2       0.73250    0.32531    -0.00269   1.00
N1       0.84336    0.23961    -0.00857   1.00
C6       0.86048    0.21248    -0.03073   1.00
C6       0.85128    0.23055    0.02846   1.00
C6       0.87913    0.18546    -0.00759   1.00
C6       0.87329    0.19695    0.03005   1.00
H3       0.85927    0.21203    -0.06197   1.00
H3       0.84141    0.24715    0.05300   1.00
H3       0.89522    0.16021    -0.01713   1.00
H3       0.88387    0.18243    0.05575   1.00
N1       0.67483    0.30634    0.00857   1.00
C6       0.66286    0.30516    -0.02846   1.00
C6       0.64379    0.29829    0.03073   1.00
C6       0.62382    0.29574    -0.03005   1.00
C6       0.61169    0.29136    0.00759   1.00
H3       0.68142    0.31051    -0.05300   1.00
H3       0.64436    0.29713    0.06197   1.00
H3       0.60616    0.29240    -0.05575   1.00
H3       0.58268    0.28398    0.01713   1.00
C4       0.91482    0.91493    1.14415   1.00
C4       0.91518    0.91507    1.18585   1.00
C3a      0.89764    0.88377    1.12246   1.00
C3       0.88188    0.92625    1.20732   1.00
C3       0.93144    0.94587    1.12268   1.00
C3a      0.94903    0.90412    1.20754   1.00
C2       0.91497    0.91507    1.05988   1.00
C2       0.91497    0.91508    1.27012   1.00
C3       0.89806    0.88430    1.08095   1.00
C3       0.88179    0.92612    1.24863   1.00
C3       0.93159    0.94584    1.08137   1.00
C3       0.94836    0.90422    1.24905   1.00
C5       0.87915    0.84916    1.14272   1.00
H1       0.85563    0.93476    1.19191   1.00
H1       0.88515    0.86046    1.06479   1.00
H1       0.85557    0.93468    1.26401   1.00
H1       0.94484    0.97003    1.06599   1.00
H1       0.97410    0.89568    1.26521   1.00
C5       0.98620    0.89155    1.18728   1.00
H1       0.94475    0.97005    1.13809   1.00
H2       1.00440    0.87401    1.20756   1.00
H2       0.97931    0.87208    1.16231   1.00
H2       0.87790    0.82392    1.12244   1.00
H2       0.89750    0.83969    1.16769   1.00
N1       1.00836    0.92539    1.17357   1.00
C6       1.02548    0.95252    1.19573   1.00
C6       1.01628    0.93445    1.13654   1.00
C6       1.04413    0.97954    1.17259   1.00
C6       1.03829    0.96805    1.13495   1.00
H3       1.02427    0.95297    1.22697   1.00
H3       1.00641    0.91785    1.11200   1.00
H3       1.06022    1.00479    1.18213   1.00
H3       1.04887    0.98257    1.10925   1.00
N1       0.83983    0.85866    1.15643   1.00
C6       0.82786    0.85984    1.19346   1.00
C6       0.80879    0.86671    1.13427   1.00
C6       0.78882    0.86926    1.19505   1.00
C6       0.77669    0.87364    1.15741   1.00
H3       0.84642    0.85449    1.21800   1.00
H3       0.80936    0.86787    1.10303   1.00
H3       0.77116    0.87260    1.22075   1.00
H3       0.74768    0.88102    1.14787   1.00
C4       0.91493    1.14415    0.91482   1.00
C4       0.91507    1.18585    0.91518   1.00
C3a      0.88377    1.12246    0.89764   1.00
C3       0.92625    1.20732    0.88188   1.00
C3       0.94587    1.12268    0.93144   1.00
C3a      0.90412    1.20754    0.94903   1.00
C2       0.91507    1.05988    0.91497   1.00
C2       0.91508    1.27012    0.91497   1.00
C3       0.88430    1.08095    0.89806   1.00
C3       0.92612    1.24863    0.88179   1.00
C3       0.94584    1.08137    0.93159   1.00
C3       0.90422    1.24905    0.94836   1.00
C5       0.84916    1.14272    0.87915   1.00
H1       0.93476    1.19191    0.85563   1.00
H1       0.86046    1.06479    0.88515   1.00
H1       0.93468    1.26401    0.85557   1.00
H1       0.97003    1.06599    0.94484   1.00
H1       0.89568    1.26521    0.97410   1.00
C5       0.89155    1.18728    0.98620   1.00
H1       0.97005    1.13809    0.94475   1.00
H2       0.87401    1.20756    1.00440   1.00
H2       0.87208    1.16231    0.97931   1.00
H2       0.82392    1.12244    0.87790   1.00
H2       0.83969    1.16769    0.89750   1.00
N1       0.92539    1.17357    1.00836   1.00
C6       0.95252    1.19573    1.02548   1.00
C6       0.93445    1.13654    1.01628   1.00
C6       0.97954    1.17259    1.04413   1.00
C6       0.96805    1.13495    1.03829   1.00
H3       0.95297    1.22697    1.02427   1.00
H3       0.91785    1.11200    1.00641   1.00
H3       1.00479    1.18213    1.06022   1.00
H3       0.98257    1.10925    1.04887   1.00
N1       0.85866    1.15643    0.83983   1.00
C6       0.85984    1.19346    0.82786   1.00
C6       0.86671    1.13427    0.80879   1.00
C6       0.86926    1.19505    0.78882   1.00
C6       0.87364    1.15741    0.77669   1.00
H3       0.85449    1.21800    0.84642   1.00
H3       0.86787    1.10303    0.80936   1.00
H3       0.87260    1.22075    0.77116   1.00
H3       0.88102    1.14787    0.74768   1.00
C4       0.68585    0.91482    0.91507   1.00
C4       0.64415    0.91518    0.91493   1.00
C3a      0.70754    0.89764    0.94623   1.00
C3       0.62268    0.88188    0.90375   1.00
C3       0.70732    0.93144    0.88413   1.00
C3a      0.62246    0.94903    0.92588   1.00
C2       0.77012    0.91497    0.91493   1.00
C2       0.55988    0.91497    0.91492   1.00
C3       0.74905    0.89806    0.94570   1.00
C3       0.58137    0.88179    0.90388   1.00
C3       0.74863    0.93159    0.88416   1.00
C3       0.58095    0.94836    0.92578   1.00
C5       0.68728    0.87915    0.98084   1.00
H1       0.63809    0.85563    0.89524   1.00
H1       0.76521    0.88515    0.96954   1.00
H1       0.56599    0.85557    0.89532   1.00
H1       0.76401    0.94484    0.85997   1.00
H1       0.56479    0.97410    0.93432   1.00
C5       0.64272    0.98620    0.93845   1.00
H1       0.69191    0.94475    0.85995   1.00
H2       0.62244    1.00440    0.95599   1.00
H2       0.66769    0.97931    0.95792   1.00
H2       0.70756    0.87790    1.00608   1.00
H2       0.66231    0.89750    0.99031   1.00
N1       0.65643    1.00836    0.90461   1.00
C6       0.63427    1.02548    0.87748   1.00
C6       0.69346    1.01628    0.89555   1.00
C6       0.65741    1.04413    0.85046   1.00
C6       0.69505    1.03829    0.86195   1.00
H3       0.60303    1.02427    0.87703   1.00
H3       0.71800    1.00641    0.91215   1.00
H3       0.64787    1.06022    0.82521   1.00
H3       0.72075    1.04887    0.84743   1.00
N1       0.67357    0.83983    0.97134   1.00
C6       0.63654    0.82786    0.97016   1.00
C6       0.69573    0.80879    0.96329   1.00
C6       0.63495    0.78882    0.96074   1.00
C6       0.67259    0.77669    0.95636   1.00
H3       0.61200    0.84642    0.97551   1.00
H3       0.72697    0.80936    0.96213   1.00
H3       0.60925    0.77116    0.95740   1.00
H3       0.68213    0.74768    0.94898   1.00
C4       1.14415    0.91482    0.91493   1.00
C4       1.18585    0.91518    0.91507   1.00
C3a      1.12246    0.89764    0.88377   1.00
C3       1.20732    0.88188    0.92625   1.00
C3       1.12268    0.93144    0.94587   1.00
C3a      1.20754    0.94903    0.90412   1.00
C2       1.05988    0.91497    0.91507   1.00
C2       1.27012    0.91497    0.91508   1.00
C3       1.08095    0.89806    0.88430   1.00
C3       1.24863    0.88179    0.92612   1.00
C3       1.08137    0.93159    0.94584   1.00
C3       1.24905    0.94836    0.90422   1.00
C5       1.14272    0.87915    0.84916   1.00
H1       1.19191    0.85563    0.93476   1.00
H1       1.06479    0.88515    0.86046   1.00
H1       1.26401    0.85557    0.93468   1.00
H1       1.06599    0.94484    0.97003   1.00
H1       1.26521    0.97410    0.89568   1.00
C5       1.18728    0.98620    0.89155   1.00
H1       1.13809    0.94475    0.97005   1.00
H2       1.20756    1.00440    0.87401   1.00
H2       1.16231    0.97931    0.87208   1.00
H2       1.12244    0.87790    0.82392   1.00
H2       1.16769    0.89750    0.83969   1.00
N1       1.17357    1.00836    0.92539   1.00
C6       1.19573    1.02548    0.95252   1.00
C6       1.13654    1.01628    0.93445   1.00
C6       1.17259    1.04413    0.97954   1.00
C6       1.13495    1.03829    0.96805   1.00
H3       1.22697    1.02427    0.95297   1.00
H3       1.11200    1.00641    0.91785   1.00
H3       1.18213    1.06022    1.00479   1.00
H3       1.10925    1.04887    0.98257   1.00
N1       1.15643    0.83983    0.85866   1.00
C6       1.19346    0.82786    0.85984   1.00
C6       1.13427    0.80879    0.86671   1.00
C6       1.19505    0.78882    0.86926   1.00
C6       1.15741    0.77669    0.87364   1.00
H3       1.21800    0.84642    0.85449   1.00
H3       1.10303    0.80936    0.86787   1.00
H3       1.22075    0.77116    0.87260   1.00
H3       1.14787    0.74768    0.88102   1.00
C4       0.91507    0.68585    0.91482   1.00
C4       0.91493    0.64415    0.91518   1.00
C3a      0.94623    0.70754    0.89764   1.00
C3       0.90375    0.62268    0.88188   1.00
C3       0.88413    0.70732    0.93144   1.00
C3a      0.92588    0.62246    0.94903   1.00
C2       0.91493    0.77012    0.91497   1.00
C2       0.91492    0.55988    0.91497   1.00
C3       0.94570    0.74905    0.89806   1.00
C3       0.90388    0.58137    0.88179   1.00
C3       0.88416    0.74863    0.93159   1.00
C3       0.92578    0.58095    0.94836   1.00
C5       0.98084    0.68728    0.87915   1.00
H1       0.89524    0.63809    0.85563   1.00
H1       0.96954    0.76521    0.88515   1.00
H1       0.89532    0.56599    0.85557   1.00
H1       0.85997    0.76401    0.94484   1.00
H1       0.93432    0.56479    0.97410   1.00
C5       0.93845    0.64272    0.98620   1.00
H1       0.85995    0.69191    0.94475   1.00
H2       0.95599    0.62244    1.00440   1.00
H2       0.95792    0.66769    0.97931   1.00
H2       1.00608    0.70756    0.87790   1.00
H2       0.99031    0.66231    0.89750   1.00
N1       0.90461    0.65643    1.00836   1.00
C6       0.87748    0.63427    1.02548   1.00
C6       0.89555    0.69346    1.01628   1.00
C6       0.85046    0.65741    1.04413   1.00
C6       0.86195    0.69505    1.03829   1.00
H3       0.87703    0.60303    1.02427   1.00
H3       0.91215    0.71800    1.00641   1.00
H3       0.82521    0.64787    1.06022   1.00
H3       0.84743    0.72075    1.04887   1.00
N1       0.97134    0.67357    0.83983   1.00
C6       0.97016    0.63654    0.82786   1.00
C6       0.96329    0.69573    0.80879   1.00
C6       0.96074    0.63495    0.78882   1.00
C6       0.95636    0.67259    0.77669   1.00
H3       0.97551    0.61200    0.84642   1.00
H3       0.96213    0.72697    0.80936   1.00
H3       0.95740    0.60925    0.77116   1.00
H3       0.94898    0.68213    0.74768   1.00
C4       0.91482    0.91507    0.68585   1.00
C4       0.91518    0.91493    0.64415   1.00
C3a      0.89764    0.94623    0.70754   1.00
C3       0.88188    0.90375    0.62268   1.00
C3       0.93144    0.88413    0.70732   1.00
C3a      0.94903    0.92588    0.62246   1.00
C2       0.91497    0.91493    0.77012   1.00
C2       0.91497    0.91492    0.55988   1.00
C3       0.89806    0.94570    0.74905   1.00
C3       0.88179    0.90388    0.58137   1.00
C3       0.93159    0.88416    0.74863   1.00
C3       0.94836    0.92578    0.58095   1.00
C5       0.87915    0.98084    0.68728   1.00
H1       0.85563    0.89524    0.63809   1.00
H1       0.88515    0.96954    0.76521   1.00
H1       0.85557    0.89532    0.56599   1.00
H1       0.94484    0.85997    0.76401   1.00
H1       0.97410    0.93432    0.56479   1.00
C5       0.98620    0.93845    0.64272   1.00
H1       0.94475    0.85995    0.69191   1.00
H2       1.00440    0.95599    0.62244   1.00
H2       0.97931    0.95792    0.66769   1.00
H2       0.87790    1.00608    0.70756   1.00
H2       0.89750    0.99031    0.66231   1.00
N1       1.00836    0.90461    0.65643   1.00
C6       1.02548    0.87748    0.63427   1.00
C6       1.01628    0.89555    0.69346   1.00
C6       1.04413    0.85046    0.65741   1.00
C6       1.03829    0.86195    0.69505   1.00
H3       1.02427    0.87703    0.60303   1.00
H3       1.00641    0.91215    0.71800   1.00
H3       1.06022    0.82521    0.64787   1.00
H3       1.04887    0.84743    0.72075   1.00
N1       0.83983    0.97134    0.67357   1.00
C6       0.82786    0.97016    0.63654   1.00
C6       0.80879    0.96329    0.69573   1.00
C6       0.78882    0.96074    0.63495   1.00
C6       0.77669    0.95636    0.67259   1.00
H3       0.84642    0.97551    0.61200   1.00
H3       0.80936    0.96213    0.72697   1.00
H3       0.77116    0.95740    0.60925   1.00
H3       0.74768    0.94898    0.68213   1.00
C4       0.41482    0.41493    1.14415   1.00
C4       0.41518    0.41507    1.18585   1.00
C3a      0.39764    0.38377    1.12246   1.00
C3       0.38188    0.42625    1.20732   1.00
C3       0.43144    0.44587    1.12268   1.00
C3a      0.44903    0.40412    1.20754   1.00
C2       0.41497    0.41507    1.05988   1.00
C2       0.41497    0.41508    1.27012   1.00
C3       0.39806    0.38430    1.08095   1.00
C3       0.38179    0.42612    1.24863   1.00
C3       0.43159    0.44584    1.08137   1.00
C3       0.44836    0.40422    1.24905   1.00
C5       0.37915    0.34916    1.14272   1.00
H1       0.35563    0.43476    1.19191   1.00
H1       0.38515    0.36046    1.06479   1.00
H1       0.35557    0.43468    1.26401   1.00
H1       0.44484    0.47003    1.06599   1.00
H1       0.47410    0.39568    1.26521   1.00
C5       0.48620    0.39155    1.18728   1.00
H1       0.44475    0.47005    1.13809   1.00
H2       0.50440    0.37401    1.20756   1.00
H2       0.47931    0.37208    1.16231   1.00
H2       0.37790    0.32392    1.12244   1.00
H2       0.39750    0.33969    1.16769   1.00
N1       0.50836    0.42539    1.17357   1.00
C6       0.52548    0.45252    1.19573   1.00
C6       0.51628    0.43445    1.13654   1.00
C6       0.54413    0.47954    1.17259   1.00
C6       0.53829    0.46805    1.13495   1.00
H3       0.52427    0.45297    1.22697   1.00
H3       0.50641    0.41785    1.11200   1.00
H3       0.56022    0.50479    1.18213   1.00
H3       0.54887    0.48257    1.10925   1.00
N1       0.33983    0.35866    1.15643   1.00
C6       0.32786    0.35984    1.19346   1.00
C6       0.30879    0.36671    1.13427   1.00
C6       0.28882    0.36926    1.19505   1.00
C6       0.27669    0.37364    1.15741   1.00
H3       0.34642    0.35449    1.21800   1.00
H3       0.30936    0.36787    1.10303   1.00
H3       0.27116    0.37260    1.22075   1.00
H3       0.24768    0.38102    1.14787   1.00
C4       0.41493    0.64415    0.91482   1.00
C4       0.41507    0.68585    0.91518   1.00
C3a      0.38377    0.62246    0.89764   1.00
C3       0.42625    0.70732    0.88188   1.00
C3       0.44587    0.62268    0.93144   1.00
C3a      0.40412    0.70754    0.94903   1.00
C2       0.41507    0.55988    0.91497   1.00
C2       0.41508    0.77012    0.91497   1.00
C3       0.38430    0.58095    0.89806   1.00
C3       0.42612    0.74863    0.88179   1.00
C3       0.44584    0.58137    0.93159   1.00
C3       0.40422    0.74905    0.94836   1.00
C5       0.34916    0.64272    0.87915   1.00
H1       0.43476    0.69191    0.85563   1.00
H1       0.36046    0.56479    0.88515   1.00
H1       0.43468    0.76401    0.85557   1.00
H1       0.47003    0.56599    0.94484   1.00
H1       0.39568    0.76521    0.97410   1.00
C5       0.39155    0.68728    0.98620   1.00
H1       0.47005    0.63809    0.94475   1.00
H2       0.37401    0.70756    1.00440   1.00
H2       0.37208    0.66231    0.97931   1.00
H2       0.32392    0.62244    0.87790   1.00
H2       0.33969    0.66769    0.89750   1.00
N1       0.42539    0.67357    1.00836   1.00
C6       0.45252    0.69573    1.02548   1.00
C6       0.43445    0.63654    1.01628   1.00
C6       0.47954    0.67259    1.04413   1.00
C6       0.46805    0.63495    1.03829   1.00
H3       0.45297    0.72697    1.02427   1.00
H3       0.41785    0.61200    1.00641   1.00
H3       0.50479    0.68213    1.06022   1.00
H3       0.48257    0.60925    1.04887   1.00
N1       0.35866    0.65643    0.83983   1.00
C6       0.35984    0.69346    0.82786   1.00
C6       0.36671    0.63427    0.80879   1.00
C6       0.36926    0.69505    0.78882   1.00
C6       0.37364    0.65741    0.77669   1.00
H3       0.35449    0.71800    0.84642   1.00
H3       0.36787    0.60303    0.80936   1.00
H3       0.37260    0.72075    0.77116   1.00
H3       0.38102    0.64787    0.74768   1.00
C4       0.18585    0.41482    0.91507   1.00
C4       0.14415    0.41518    0.91493   1.00
C3a      0.20754    0.39764    0.94623   1.00
C3       0.12268    0.38188    0.90375   1.00
C3       0.20732    0.43144    0.88413   1.00
C3a      0.12246    0.44903    0.92588   1.00
C2       0.27012    0.41497    0.91493   1.00
C2       0.05988    0.41497    0.91492   1.00
C3       0.24905    0.39806    0.94570   1.00
C3       0.08137    0.38179    0.90388   1.00
C3       0.24863    0.43159    0.88416   1.00
C3       0.08095    0.44836    0.92578   1.00
C5       0.18728    0.37915    0.98084   1.00
H1       0.13809    0.35563    0.89524   1.00
H1       0.26521    0.38515    0.96954   1.00
H1       0.06599    0.35557    0.89532   1.00
H1       0.26401    0.44484    0.85997   1.00
H1       0.06479    0.47410    0.93432   1.00
C5       0.14272    0.48620    0.93845   1.00
H1       0.19191    0.44475    0.85995   1.00
H2       0.12244    0.50440    0.95599   1.00
H2       0.16769    0.47931    0.95792   1.00
H2       0.20756    0.37790    1.00608   1.00
H2       0.16231    0.39750    0.99031   1.00
N1       0.15643    0.50836    0.90461   1.00
C6       0.13427    0.52548    0.87748   1.00
C6       0.19346    0.51628    0.89555   1.00
C6       0.15741    0.54413    0.85046   1.00
C6       0.19505    0.53829    0.86195   1.00
H3       0.10303    0.52427    0.87703   1.00
H3       0.21800    0.50641    0.91215   1.00
H3       0.14787    0.56022    0.82521   1.00
H3       0.22075    0.54887    0.84743   1.00
N1       0.17357    0.33983    0.97134   1.00
C6       0.13654    0.32786    0.97016   1.00
C6       0.19573    0.30879    0.96329   1.00
C6       0.13495    0.28882    0.96074   1.00
C6       0.17259    0.27669    0.95636   1.00
H3       0.11200    0.34642    0.97551   1.00
H3       0.22697    0.30936    0.96213   1.00
H3       0.10925    0.27116    0.95740   1.00
H3       0.18213    0.24768    0.94898   1.00
C4       0.64415    0.41482    0.91493   1.00
C4       0.68585    0.41518    0.91507   1.00
C3a      0.62246    0.39764    0.88377   1.00
C3       0.70732    0.38188    0.92625   1.00
C3       0.62268    0.43144    0.94587   1.00
C3a      0.70754    0.44903    0.90412   1.00
C2       0.55988    0.41497    0.91507   1.00
C2       0.77012    0.41497    0.91508   1.00
C3       0.58095    0.39806    0.88430   1.00
C3       0.74863    0.38179    0.92612   1.00
C3       0.58137    0.43159    0.94584   1.00
C3       0.74905    0.44836    0.90422   1.00
C5       0.64272    0.37915    0.84916   1.00
H1       0.69191    0.35563    0.93476   1.00
H1       0.56479    0.38515    0.86046   1.00
H1       0.76401    0.35557    0.93468   1.00
H1       0.56599    0.44484    0.97003   1.00
H1       0.76521    0.47410    0.89568   1.00
C5       0.68728    0.48620    0.89155   1.00
H1       0.63809    0.44475    0.97005   1.00
H2       0.70756    0.50440    0.87401   1.00
H2       0.66231    0.47931    0.87208   1.00
H2       0.62244    0.37790    0.82392   1.00
H2       0.66769    0.39750    0.83969   1.00
N1       0.67357    0.50836    0.92539   1.00
C6       0.69573    0.52548    0.95252   1.00
C6       0.63654    0.51628    0.93445   1.00
C6       0.67259    0.54413    0.97954   1.00
C6       0.63495    0.53829    0.96805   1.00
H3       0.72697    0.52427    0.95297   1.00
H3       0.61200    0.50641    0.91785   1.00
H3       0.68213    0.56022    1.00479   1.00
H3       0.60925    0.54887    0.98257   1.00
N1       0.65643    0.33983    0.85866   1.00
C6       0.69346    0.32786    0.85984   1.00
C6       0.63427    0.30879    0.86671   1.00
C6       0.69505    0.28882    0.86926   1.00
C6       0.65741    0.27669    0.87364   1.00
H3       0.71800    0.34642    0.85449   1.00
H3       0.60303    0.30936    0.86787   1.00
H3       0.72075    0.27116    0.87260   1.00
H3       0.64787    0.24768    0.88102   1.00
C4       0.41507    0.18585    0.91482   1.00
C4       0.41493    0.14415    0.91518   1.00
C3a      0.44623    0.20754    0.89764   1.00
C3       0.40375    0.12268    0.88188   1.00
C3       0.38413    0.20732    0.93144   1.00
C3a      0.42588    0.12246    0.94903   1.00
C2       0.41493    0.27012    0.91497   1.00
C2       0.41492    0.05988    0.91497   1.00
C3       0.44570    0.24905    0.89806   1.00
C3       0.40388    0.08137    0.88179   1.00
C3       0.38416    0.24863    0.93159   1.00
C3       0.42578    0.08095    0.94836   1.00
C5       0.48084    0.18728    0.87915   1.00
H1       0.39524    0.13809    0.85563   1.00
H1       0.46954    0.26521    0.88515   1.00
H1       0.39532    0.06599    0.85557   1.00
H1       0.35997    0.26401    0.94484   1.00
H1       0.43432    0.06479    0.97410   1.00
C5       0.43845    0.14272    0.98620   1.00
H1       0.35995    0.19191    0.94475   1.00
H2       0.45599    0.12244    1.00440   1.00
H2       0.45792    0.16769    0.97931   1.00
H2       0.50608    0.20756    0.87790   1.00
H2       0.49031    0.16231    0.89750   1.00
N1       0.40461    0.15643    1.00836   1.00
C6       0.37748    0.13427    1.02548   1.00
C6       0.39555    0.19346    1.01628   1.00
C6       0.35046    0.15741    1.04413   1.00
C6       0.36195    0.19505    1.03829   1.00
H3       0.37703    0.10303    1.02427   1.00
H3       0.41215    0.21800    1.00641   1.00
H3       0.32521    0.14787    1.06022   1.00
H3       0.34743    0.22075    1.04887   1.00
N1       0.47134    0.17357    0.83983   1.00
C6       0.47016    0.13654    0.82786   1.00
C6       0.46329    0.19573    0.80879   1.00
C6       0.46074    0.13495    0.78882   1.00
C6       0.45636    0.17259    0.77669   1.00
H3       0.47551    0.11200    0.84642   1.00
H3       0.46213    0.22697    0.80936   1.00
H3       0.45740    0.10925    0.77116   1.00
H3       0.44898    0.18213    0.74768   1.00
C4       0.41482    0.41507    0.68585   1.00
C4       0.41518    0.41493    0.64415   1.00
C3a      0.39764    0.44623    0.70754   1.00
C3       0.38188    0.40375    0.62268   1.00
C3       0.43144    0.38413    0.70732   1.00
C3a      0.44903    0.42588    0.62246   1.00
C2       0.41497    0.41493    0.77012   1.00
C2       0.41497    0.41492    0.55988   1.00
C3       0.39806    0.44570    0.74905   1.00
C3       0.38179    0.40388    0.58137   1.00
C3       0.43159    0.38416    0.74863   1.00
C3       0.44836    0.42578    0.58095   1.00
C5       0.37915    0.48084    0.68728   1.00
H1       0.35563    0.39524    0.63809   1.00
H1       0.38515    0.46954    0.76521   1.00
H1       0.35557    0.39532    0.56599   1.00
H1       0.44484    0.35997    0.76401   1.00
H1       0.47410    0.43432    0.56479   1.00
C5       0.48620    0.43845    0.64272   1.00
H1       0.44475    0.35995    0.69191   1.00
H2       0.50440    0.45599    0.62244   1.00
H2       0.47931    0.45792    0.66769   1.00
H2       0.37790    0.50608    0.70756   1.00
H2       0.39750    0.49031    0.66231   1.00
N1       0.50836    0.40461    0.65643   1.00
C6       0.52548    0.37748    0.63427   1.00
C6       0.51628    0.39555    0.69346   1.00
C6       0.54413    0.35046    0.65741   1.00
C6       0.53829    0.36195    0.69505   1.00
H3       0.52427    0.37703    0.60303   1.00
H3       0.50641    0.41215    0.71800   1.00
H3       0.56022    0.32521    0.64787   1.00
H3       0.54887    0.34743    0.72075   1.00
N1       0.33983    0.47134    0.67357   1.00
C6       0.32786    0.47016    0.63654   1.00
C6       0.30879    0.46329    0.69573   1.00
C6       0.28882    0.46074    0.63495   1.00
C6       0.27669    0.45636    0.67259   1.00
H3       0.34642    0.47551    0.61200   1.00
H3       0.30936    0.46213    0.72697   1.00
H3       0.27116    0.45740    0.60925   1.00
H3       0.24768    0.44898    0.68213   1.00
C4       0.41482    0.91493    0.64415   1.00
C4       0.41518    0.91507    0.68585   1.00
C3a      0.39764    0.88377    0.62246   1.00
C3       0.38188    0.92625    0.70732   1.00
C3       0.43144    0.94587    0.62268   1.00
C3a      0.44903    0.90412    0.70754   1.00
C2       0.41497    0.91507    0.55988   1.00
C2       0.41497    0.91508    0.77012   1.00
C3       0.39806    0.88430    0.58095   1.00
C3       0.38179    0.92612    0.74863   1.00
C3       0.43159    0.94584    0.58137   1.00
C3       0.44836    0.90422    0.74905   1.00
C5       0.37915    0.84916    0.64272   1.00
H1       0.35563    0.93476    0.69191   1.00
H1       0.38515    0.86046    0.56479   1.00
H1       0.35557    0.93468    0.76401   1.00
H1       0.44484    0.97003    0.56599   1.00
H1       0.47410    0.89568    0.76521   1.00
C5       0.48620    0.89155    0.68728   1.00
H1       0.44475    0.97005    0.63809   1.00
H2       0.50440    0.87401    0.70756   1.00
H2       0.47931    0.87208    0.66231   1.00
H2       0.37790    0.82392    0.62244   1.00
H2       0.39750    0.83969    0.66769   1.00
N1       0.50836    0.92539    0.67357   1.00
C6       0.52548    0.95252    0.69573   1.00
C6       0.51628    0.93445    0.63654   1.00
C6       0.54413    0.97954    0.67259   1.00
C6       0.53829    0.96805    0.63495   1.00
H3       0.52427    0.95297    0.72697   1.00
H3       0.50641    0.91785    0.61200   1.00
H3       0.56022    1.00479    0.68213   1.00
H3       0.54887    0.98257    0.60925   1.00
N1       0.33983    0.85866    0.65643   1.00
C6       0.32786    0.85984    0.69346   1.00
C6       0.30879    0.86671    0.63427   1.00
C6       0.28882    0.86926    0.69505   1.00
C6       0.27669    0.87364    0.65741   1.00
H3       0.34642    0.85449    0.71800   1.00
H3       0.30936    0.86787    0.60303   1.00
H3       0.27116    0.87260    0.72075   1.00
H3       0.24768    0.88102    0.64787   1.00
C4       0.41493    1.14415    0.41482   1.00
C4       0.41507    1.18585    0.41518   1.00
C3a      0.38377    1.12246    0.39764   1.00
C3       0.42625    1.20732    0.38188   1.00
C3       0.44587    1.12268    0.43144   1.00
C3a      0.40412    1.20754    0.44903   1.00
C2       0.41507    1.05988    0.41497   1.00
C2       0.41508    1.27012    0.41497   1.00
C3       0.38430    1.08095    0.39806   1.00
C3       0.42612    1.24863    0.38179   1.00
C3       0.44584    1.08137    0.43159   1.00
C3       0.40422    1.24905    0.44836   1.00
C5       0.34916    1.14272    0.37915   1.00
H1       0.43476    1.19191    0.35563   1.00
H1       0.36046    1.06479    0.38515   1.00
H1       0.43468    1.26401    0.35557   1.00
H1       0.47003    1.06599    0.44484   1.00
H1       0.39568    1.26521    0.47410   1.00
C5       0.39155    1.18728    0.48620   1.00
H1       0.47005    1.13809    0.44475   1.00
H2       0.37401    1.20756    0.50440   1.00
H2       0.37208    1.16231    0.47931   1.00
H2       0.32392    1.12244    0.37790   1.00
H2       0.33969    1.16769    0.39750   1.00
N1       0.42539    1.17357    0.50836   1.00
C6       0.45252    1.19573    0.52548   1.00
C6       0.43445    1.13654    0.51628   1.00
C6       0.47954    1.17259    0.54413   1.00
C6       0.46805    1.13495    0.53829   1.00
H3       0.45297    1.22697    0.52427   1.00
H3       0.41785    1.11200    0.50641   1.00
H3       0.50479    1.18213    0.56022   1.00
H3       0.48257    1.10925    0.54887   1.00
N1       0.35866    1.15643    0.33983   1.00
C6       0.35984    1.19346    0.32786   1.00
C6       0.36671    1.13427    0.30879   1.00
C6       0.36926    1.19505    0.28882   1.00
C6       0.37364    1.15741    0.27669   1.00
H3       0.35449    1.21800    0.34642   1.00
H3       0.36787    1.10303    0.30936   1.00
H3       0.37260    1.22075    0.27116   1.00
H3       0.38102    1.14787    0.24768   1.00
C4       0.18585    0.91482    0.41507   1.00
C4       0.14415    0.91518    0.41493   1.00
C3a      0.20754    0.89764    0.44623   1.00
C3       0.12268    0.88188    0.40375   1.00
C3       0.20732    0.93144    0.38413   1.00
C3a      0.12246    0.94903    0.42588   1.00
C2       0.27012    0.91497    0.41493   1.00
C2       0.05988    0.91497    0.41492   1.00
C3       0.24905    0.89806    0.44570   1.00
C3       0.08137    0.88179    0.40388   1.00
C3       0.24863    0.93159    0.38416   1.00
C3       0.08095    0.94836    0.42578   1.00
C5       0.18728    0.87915    0.48084   1.00
H1       0.13809    0.85563    0.39524   1.00
H1       0.26521    0.88515    0.46954   1.00
H1       0.06599    0.85557    0.39532   1.00
H1       0.26401    0.94484    0.35997   1.00
H1       0.06479    0.97410    0.43432   1.00
C5       0.14272    0.98620    0.43845   1.00
H1       0.19191    0.94475    0.35995   1.00
H2       0.12244    1.00440    0.45599   1.00
H2       0.16769    0.97931    0.45792   1.00
H2       0.20756    0.87790    0.50608   1.00
H2       0.16231    0.89750    0.49031   1.00
N1       0.15643    1.00836    0.40461   1.00
C6       0.13427    1.02548    0.37748   1.00
C6       0.19346    1.01628    0.39555   1.00
C6       0.15741    1.04413    0.35046   1.00
C6       0.19505    1.03829    0.36195   1.00
H3       0.10303    1.02427    0.37703   1.00
H3       0.21800    1.00641    0.41215   1.00
H3       0.14787    1.06022    0.32521   1.00
H3       0.22075    1.04887    0.34743   1.00
N1       0.17357    0.83983    0.47134   1.00
C6       0.13654    0.82786    0.47016   1.00
C6       0.19573    0.80879    0.46329   1.00
C6       0.13495    0.78882    0.46074   1.00
C6       0.17259    0.77669    0.45636   1.00
H3       0.11200    0.84642    0.47551   1.00
H3       0.22697    0.80936    0.46213   1.00
H3       0.10925    0.77116    0.45740   1.00
H3       0.18213    0.74768    0.44898   1.00
C4       0.64415    0.91482    0.41493   1.00
C4       0.68585    0.91518    0.41507   1.00
C3a      0.62246    0.89764    0.38377   1.00
C3       0.70732    0.88188    0.42625   1.00
C3       0.62268    0.93144    0.44587   1.00
C3a      0.70754    0.94903    0.40412   1.00
C2       0.55988    0.91497    0.41507   1.00
C2       0.77012    0.91497    0.41508   1.00
C3       0.58095    0.89806    0.38430   1.00
C3       0.74863    0.88179    0.42612   1.00
C3       0.58137    0.93159    0.44584   1.00
C3       0.74905    0.94836    0.40422   1.00
C5       0.64272    0.87915    0.34916   1.00
H1       0.69191    0.85563    0.43476   1.00
H1       0.56479    0.88515    0.36046   1.00
H1       0.76401    0.85557    0.43468   1.00
H1       0.56599    0.94484    0.47003   1.00
H1       0.76521    0.97410    0.39568   1.00
C5       0.68728    0.98620    0.39155   1.00
H1       0.63809    0.94475    0.47005   1.00
H2       0.70756    1.00440    0.37401   1.00
H2       0.66231    0.97931    0.37208   1.00
H2       0.62244    0.87790    0.32392   1.00
H2       0.66769    0.89750    0.33969   1.00
N1       0.67357    1.00836    0.42539   1.00
C6       0.69573    1.02548    0.45252   1.00
C6       0.63654    1.01628    0.43445   1.00
C6       0.67259    1.04413    0.47954   1.00
C6       0.63495    1.03829    0.46805   1.00
H3       0.72697    1.02427    0.45297   1.00
H3       0.61200    1.00641    0.41785   1.00
H3       0.68213    1.06022    0.50479   1.00
H3       0.60925    1.04887    0.48257   1.00
N1       0.65643    0.83983    0.35866   1.00
C6       0.69346    0.82786    0.35984   1.00
C6       0.63427    0.80879    0.36671   1.00
C6       0.69505    0.78882    0.36926   1.00
C6       0.65741    0.77669    0.37364   1.00
H3       0.71800    0.84642    0.35449   1.00
H3       0.60303    0.80936    0.36787   1.00
H3       0.72075    0.77116    0.37260   1.00
H3       0.64787    0.74768    0.38102   1.00
C4       0.41507    0.68585    0.41482   1.00
C4       0.41493    0.64415    0.41518   1.00
C3a      0.44623    0.70754    0.39764   1.00
C3       0.40375    0.62268    0.38188   1.00
C3       0.38413    0.70732    0.43144   1.00
C3a      0.42588    0.62246    0.44903   1.00
C2       0.41493    0.77012    0.41497   1.00
C2       0.41492    0.55988    0.41497   1.00
C3       0.44570    0.74905    0.39806   1.00
C3       0.40388    0.58137    0.38179   1.00
C3       0.38416    0.74863    0.43159   1.00
C3       0.42578    0.58095    0.44836   1.00
C5       0.48084    0.68728    0.37915   1.00
H1       0.39524    0.63809    0.35563   1.00
H1       0.46954    0.76521    0.38515   1.00
H1       0.39532    0.56599    0.35557   1.00
H1       0.35997    0.76401    0.44484   1.00
H1       0.43432    0.56479    0.47410   1.00
C5       0.43845    0.64272    0.48620   1.00
H1       0.35995    0.69191    0.44475   1.00
H2       0.45599    0.62244    0.50440   1.00
H2       0.45792    0.66769    0.47931   1.00
H2       0.50608    0.70756    0.37790   1.00
H2       0.49031    0.66231    0.39750   1.00
N1       0.40461    0.65643    0.50836   1.00
C6       0.37748    0.63427    0.52548   1.00
C6       0.39555    0.69346    0.51628   1.00
C6       0.35046    0.65741    0.54413   1.00
C6       0.36195    0.69505    0.53829   1.00
H3       0.37703    0.60303    0.52427   1.00
H3       0.41215    0.71800    0.50641   1.00
H3       0.32521    0.64787    0.56022   1.00
H3       0.34743    0.72075    0.54887   1.00
N1       0.47134    0.67357    0.33983   1.00
C6       0.47016    0.63654    0.32786   1.00
C6       0.46329    0.69573    0.30879   1.00
C6       0.46074    0.63495    0.28882   1.00
C6       0.45636    0.67259    0.27669   1.00
H3       0.47551    0.61200    0.34642   1.00
H3       0.46213    0.72697    0.30936   1.00
H3       0.45740    0.60925    0.27116   1.00
H3       0.44898    0.68213    0.24768   1.00
C4       0.41482    0.91507    0.18585   1.00
C4       0.41518    0.91493    0.14415   1.00
C3a      0.39764    0.94623    0.20754   1.00
C3       0.38188    0.90375    0.12268   1.00
C3       0.43144    0.88413    0.20732   1.00
C3a      0.44903    0.92588    0.12246   1.00
C2       0.41497    0.91493    0.27012   1.00
C2       0.41497    0.91492    0.05988   1.00
C3       0.39806    0.94570    0.24905   1.00
C3       0.38179    0.90388    0.08137   1.00
C3       0.43159    0.88416    0.24863   1.00
C3       0.44836    0.92578    0.08095   1.00
C5       0.37915    0.98084    0.18728   1.00
H1       0.35563    0.89524    0.13809   1.00
H1       0.38515    0.96954    0.26521   1.00
H1       0.35557    0.89532    0.06599   1.00
H1       0.44484    0.85997    0.26401   1.00
H1       0.47410    0.93432    0.06479   1.00
C5       0.48620    0.93845    0.14272   1.00
H1       0.44475    0.85995    0.19191   1.00
H2       0.50440    0.95599    0.12244   1.00
H2       0.47931    0.95792    0.16769   1.00
H2       0.37790    1.00608    0.20756   1.00
H2       0.39750    0.99031    0.16231   1.00
N1       0.50836    0.90461    0.15643   1.00
C6       0.52548    0.87748    0.13427   1.00
C6       0.51628    0.89555    0.19346   1.00
C6       0.54413    0.85046    0.15741   1.00
C6       0.53829    0.86195    0.19505   1.00
H3       0.52427    0.87703    0.10303   1.00
H3       0.50641    0.91215    0.21800   1.00
H3       0.56022    0.82521    0.14787   1.00
H3       0.54887    0.84743    0.22075   1.00
N1       0.33983    0.97134    0.17357   1.00
C6       0.32786    0.97016    0.13654   1.00
C6       0.30879    0.96329    0.19573   1.00
C6       0.28882    0.96074    0.13495   1.00
C6       0.27669    0.95636    0.17259   1.00
H3       0.34642    0.97551    0.11200   1.00
H3       0.30936    0.96213    0.22697   1.00
H3       0.27116    0.95740    0.10925   1.00
H3       0.24768    0.94898    0.18213   1.00
C4       0.91482    0.41493    0.64415   1.00
C4       0.91518    0.41507    0.68585   1.00
C3a      0.89764    0.38377    0.62246   1.00
C3       0.88188    0.42625    0.70732   1.00
C3       0.93144    0.44587    0.62268   1.00
C3a      0.94903    0.40412    0.70754   1.00
C2       0.91497    0.41507    0.55988   1.00
C2       0.91497    0.41508    0.77012   1.00
C3       0.89806    0.38430    0.58095   1.00
C3       0.88179    0.42612    0.74863   1.00
C3       0.93159    0.44584    0.58137   1.00
C3       0.94836    0.40422    0.74905   1.00
C5       0.87915    0.34916    0.64272   1.00
H1       0.85563    0.43476    0.69191   1.00
H1       0.88515    0.36046    0.56479   1.00
H1       0.85557    0.43468    0.76401   1.00
H1       0.94484    0.47003    0.56599   1.00
H1       0.97410    0.39568    0.76521   1.00
C5       0.98620    0.39155    0.68728   1.00
H1       0.94475    0.47005    0.63809   1.00
H2       1.00440    0.37401    0.70756   1.00
H2       0.97931    0.37208    0.66231   1.00
H2       0.87790    0.32392    0.62244   1.00
H2       0.89750    0.33969    0.66769   1.00
N1       1.00836    0.42539    0.67357   1.00
C6       1.02548    0.45252    0.69573   1.00
C6       1.01628    0.43445    0.63654   1.00
C6       1.04413    0.47954    0.67259   1.00
C6       1.03829    0.46805    0.63495   1.00
H3       1.02427    0.45297    0.72697   1.00
H3       1.00641    0.41785    0.61200   1.00
H3       1.06022    0.50479    0.68213   1.00
H3       1.04887    0.48257    0.60925   1.00
N1       0.83983    0.35866    0.65643   1.00
C6       0.82786    0.35984    0.69346   1.00
C6       0.80879    0.36671    0.63427   1.00
C6       0.78882    0.36926    0.69505   1.00
C6       0.77669    0.37364    0.65741   1.00
H3       0.84642    0.35449    0.71800   1.00
H3       0.80936    0.36787    0.60303   1.00
H3       0.77116    0.37260    0.72075   1.00
H3       0.74768    0.38102    0.64787   1.00
C4       0.91493    0.64415    0.41482   1.00
C4       0.91507    0.68585    0.41518   1.00
C3a      0.88377    0.62246    0.39764   1.00
C3       0.92625    0.70732    0.38188   1.00
C3       0.94587    0.62268    0.43144   1.00
C3a      0.90412    0.70754    0.44903   1.00
C2       0.91507    0.55988    0.41497   1.00
C2       0.91508    0.77012    0.41497   1.00
C3       0.88430    0.58095    0.39806   1.00
C3       0.92612    0.74863    0.38179   1.00
C3       0.94584    0.58137    0.43159   1.00
C3       0.90422    0.74905    0.44836   1.00
C5       0.84916    0.64272    0.37915   1.00
H1       0.93476    0.69191    0.35563   1.00
H1       0.86046    0.56479    0.38515   1.00
H1       0.93468    0.76401    0.35557   1.00
H1       0.97003    0.56599    0.44484   1.00
H1       0.89568    0.76521    0.47410   1.00
C5       0.89155    0.68728    0.48620   1.00
H1       0.97005    0.63809    0.44475   1.00
H2       0.87401    0.70756    0.50440   1.00
H2       0.87208    0.66231    0.47931   1.00
H2       0.82392    0.62244    0.37790   1.00
H2       0.83969    0.66769    0.39750   1.00
N1       0.92539    0.67357    0.50836   1.00
C6       0.95252    0.69573    0.52548   1.00
C6       0.93445    0.63654    0.51628   1.00
C6       0.97954    0.67259    0.54413   1.00
C6       0.96805    0.63495    0.53829   1.00
H3       0.95297    0.72697    0.52427   1.00
H3       0.91785    0.61200    0.50641   1.00
H3       1.00479    0.68213    0.56022   1.00
H3       0.98257    0.60925    0.54887   1.00
N1       0.85866    0.65643    0.33983   1.00
C6       0.85984    0.69346    0.32786   1.00
C6       0.86671    0.63427    0.30879   1.00
C6       0.86926    0.69505    0.28882   1.00
C6       0.87364    0.65741    0.27669   1.00
H3       0.85449    0.71800    0.34642   1.00
H3       0.86787    0.60303    0.30936   1.00
H3       0.87260    0.72075    0.27116   1.00
H3       0.88102    0.64787    0.24768   1.00
C4       0.68585    0.41482    0.41507   1.00
C4       0.64415    0.41518    0.41493   1.00
C3a      0.70754    0.39764    0.44623   1.00
C3       0.62268    0.38188    0.40375   1.00
C3       0.70732    0.43144    0.38413   1.00
C3a      0.62246    0.44903    0.42588   1.00
C2       0.77012    0.41497    0.41493   1.00
C2       0.55988    0.41497    0.41492   1.00
C3       0.74905    0.39806    0.44570   1.00
C3       0.58137    0.38179    0.40388   1.00
C3       0.74863    0.43159    0.38416   1.00
C3       0.58095    0.44836    0.42578   1.00
C5       0.68728    0.37915    0.48084   1.00
H1       0.63809    0.35563    0.39524   1.00
H1       0.76521    0.38515    0.46954   1.00
H1       0.56599    0.35557    0.39532   1.00
H1       0.76401    0.44484    0.35997   1.00
H1       0.56479    0.47410    0.43432   1.00
C5       0.64272    0.48620    0.43845   1.00
H1       0.69191    0.44475    0.35995   1.00
H2       0.62244    0.50440    0.45599   1.00
H2       0.66769    0.47931    0.45792   1.00
H2       0.70756    0.37790    0.50608   1.00
H2       0.66231    0.39750    0.49031   1.00
N1       0.65643    0.50836    0.40461   1.00
C6       0.63427    0.52548    0.37748   1.00
C6       0.69346    0.51628    0.39555   1.00
C6       0.65741    0.54413    0.35046   1.00
C6       0.69505    0.53829    0.36195   1.00
H3       0.60303    0.52427    0.37703   1.00
H3       0.71800    0.50641    0.41215   1.00
H3       0.64787    0.56022    0.32521   1.00
H3       0.72075    0.54887    0.34743   1.00
N1       0.67357    0.33983    0.47134   1.00
C6       0.63654    0.32786    0.47016   1.00
C6       0.69573    0.30879    0.46329   1.00
C6       0.63495    0.28882    0.46074   1.00
C6       0.67259    0.27669    0.45636   1.00
H3       0.61200    0.34642    0.47551   1.00
H3       0.72697    0.30936    0.46213   1.00
H3       0.60925    0.27116    0.45740   1.00
H3       0.68213    0.24768    0.44898   1.00
C4       1.14415    0.41482    0.41493   1.00
C4       1.18585    0.41518    0.41507   1.00
C3a      1.12246    0.39764    0.38377   1.00
C3       1.20732    0.38188    0.42625   1.00
C3       1.12268    0.43144    0.44587   1.00
C3a      1.20754    0.44903    0.40412   1.00
C2       1.05988    0.41497    0.41507   1.00
C2       1.27012    0.41497    0.41508   1.00
C3       1.08095    0.39806    0.38430   1.00
C3       1.24863    0.38179    0.42612   1.00
C3       1.08137    0.43159    0.44584   1.00
C3       1.24905    0.44836    0.40422   1.00
C5       1.14272    0.37915    0.34916   1.00
H1       1.19191    0.35563    0.43476   1.00
H1       1.06479    0.38515    0.36046   1.00
H1       1.26401    0.35557    0.43468   1.00
H1       1.06599    0.44484    0.47003   1.00
H1       1.26521    0.47410    0.39568   1.00
C5       1.18728    0.48620    0.39155   1.00
H1       1.13809    0.44475    0.47005   1.00
H2       1.20756    0.50440    0.37401   1.00
H2       1.16231    0.47931    0.37208   1.00
H2       1.12244    0.37790    0.32392   1.00
H2       1.16769    0.39750    0.33969   1.00
N1       1.17357    0.50836    0.42539   1.00
C6       1.19573    0.52548    0.45252   1.00
C6       1.13654    0.51628    0.43445   1.00
C6       1.17259    0.54413    0.47954   1.00
C6       1.13495    0.53829    0.46805   1.00
H3       1.22697    0.52427    0.45297   1.00
H3       1.11200    0.50641    0.41785   1.00
H3       1.18213    0.56022    0.50479   1.00
H3       1.10925    0.54887    0.48257   1.00
N1       1.15643    0.33983    0.35866   1.00
C6       1.19346    0.32786    0.35984   1.00
C6       1.13427    0.30879    0.36671   1.00
C6       1.19505    0.28882    0.36926   1.00
C6       1.15741    0.27669    0.37364   1.00
H3       1.21800    0.34642    0.35449   1.00
H3       1.10303    0.30936    0.36787   1.00
H3       1.22075    0.27116    0.37260   1.00
H3       1.14787    0.24768    0.38102   1.00
C4       0.91507    0.18585    0.41482   1.00
C4       0.91493    0.14415    0.41518   1.00
C3a      0.94623    0.20754    0.39764   1.00
C3       0.90375    0.12268    0.38188   1.00
C3       0.88413    0.20732    0.43144   1.00
C3a      0.92588    0.12246    0.44903   1.00
C2       0.91493    0.27012    0.41497   1.00
C2       0.91492    0.05988    0.41497   1.00
C3       0.94570    0.24905    0.39806   1.00
C3       0.90388    0.08137    0.38179   1.00
C3       0.88416    0.24863    0.43159   1.00
C3       0.92578    0.08095    0.44836   1.00
C5       0.98084    0.18728    0.37915   1.00
H1       0.89524    0.13809    0.35563   1.00
H1       0.96954    0.26521    0.38515   1.00
H1       0.89532    0.06599    0.35557   1.00
H1       0.85997    0.26401    0.44484   1.00
H1       0.93432    0.06479    0.47410   1.00
C5       0.93845    0.14272    0.48620   1.00
H1       0.85995    0.19191    0.44475   1.00
H2       0.95599    0.12244    0.50440   1.00
H2       0.95792    0.16769    0.47931   1.00
H2       1.00608    0.20756    0.37790   1.00
H2       0.99031    0.16231    0.39750   1.00
N1       0.90461    0.15643    0.50836   1.00
C6       0.87748    0.13427    0.52548   1.00
C6       0.89555    0.19346    0.51628   1.00
C6       0.85046    0.15741    0.54413   1.00
C6       0.86195    0.19505    0.53829   1.00
H3       0.87703    0.10303    0.52427   1.00
H3       0.91215    0.21800    0.50641   1.00
H3       0.82521    0.14787    0.56022   1.00
H3       0.84743    0.22075    0.54887   1.00
N1       0.97134    0.17357    0.33983   1.00
C6       0.97016    0.13654    0.32786   1.00
C6       0.96329    0.19573    0.30879   1.00
C6       0.96074    0.13495    0.28882   1.00
C6       0.95636    0.17259    0.27669   1.00
H3       0.97551    0.11200    0.34642   1.00
H3       0.96213    0.22697    0.30936   1.00
H3       0.95740    0.10925    0.27116   1.00
H3       0.94898    0.18213    0.24768   1.00
C4       0.91482    0.41507    0.18585   1.00
C4       0.91518    0.41493    0.14415   1.00
C3a      0.89764    0.44623    0.20754   1.00
C3       0.88188    0.40375    0.12268   1.00
C3       0.93144    0.38413    0.20732   1.00
C3a      0.94903    0.42588    0.12246   1.00
C2       0.91497    0.41493    0.27012   1.00
C2       0.91497    0.41492    0.05988   1.00
C3       0.89806    0.44570    0.24905   1.00
C3       0.88179    0.40388    0.08137   1.00
C3       0.93159    0.38416    0.24863   1.00
C3       0.94836    0.42578    0.08095   1.00
C5       0.87915    0.48084    0.18728   1.00
H1       0.85563    0.39524    0.13809   1.00
H1       0.88515    0.46954    0.26521   1.00
H1       0.85557    0.39532    0.06599   1.00
H1       0.94484    0.35997    0.26401   1.00
H1       0.97410    0.43432    0.06479   1.00
C5       0.98620    0.43845    0.14272   1.00
H1       0.94475    0.35995    0.19191   1.00
H2       1.00440    0.45599    0.12244   1.00
H2       0.97931    0.45792    0.16769   1.00
H2       0.87790    0.50608    0.20756   1.00
H2       0.89750    0.49031    0.16231   1.00
N1       1.00836    0.40461    0.15643   1.00
C6       1.02548    0.37748    0.13427   1.00
C6       1.01628    0.39555    0.19346   1.00
C6       1.04413    0.35046    0.15741   1.00
C6       1.03829    0.36195    0.19505   1.00
H3       1.02427    0.37703    0.10303   1.00
H3       1.00641    0.41215    0.21800   1.00
H3       1.06022    0.32521    0.14787   1.00
H3       1.04887    0.34743    0.22075   1.00
N1       0.83983    0.47134    0.17357   1.00
C6       0.82786    0.47016    0.13654   1.00
C6       0.80879    0.46329    0.19573   1.00
C6       0.78882    0.46074    0.13495   1.00
C6       0.77669    0.45636    0.17259   1.00
H3       0.84642    0.47551    0.11200   1.00
H3       0.80936    0.46213    0.22697   1.00
H3       0.77116    0.45740    0.10925   1.00
H3       0.74768    0.44898    0.18213   1.00
