data_IRMOF10_SG202_interpen_Ligand8cp_label_s.

_audit_creation_method             'generated by an auxiliary program of Tobunporous'

_symmetry_space_group_name_H-M     'P 1'
_symmetry_Int_Tables_number        1
_symmetry_cell_setting             triclinic

_cell_length_a                    34.2800
_cell_length_b                    34.2800
_cell_length_c                    34.2800
_cell_angle_alpha                 90.0000
_cell_angle_beta                  90.0000
_cell_angle_gamma                 90.0000

loop_
_atom_site_label
_atom_site_fract_x
_atom_site_fract_y
_atom_site_fract_z
_atom_site_occupancy
O1       0.75000    0.75000    0.75000   1.00
Zn1      0.71720    0.78280    0.78280   1.00
Zn1      0.78280    0.71720    0.78280   1.00
Zn1      0.78280    0.78280    0.71720   1.00
Zn1      0.71720    0.71720    0.71720   1.00
O2       0.72650    0.77350    0.83820   1.00
O2       0.72650    0.83820    0.77350   1.00
O2       0.66180    0.77350    0.77350   1.00
O2       0.77350    0.72650    0.83820   1.00
O2       0.83820    0.72650    0.77350   1.00
O2       0.77350    0.66180    0.77350   1.00
O2       0.77350    0.83820    0.72650   1.00
O2       0.83820    0.77350    0.72650   1.00
O2       0.77350    0.77350    0.66180   1.00
O2       0.66180    0.72650    0.72650   1.00
O2       0.72650    0.66180    0.72650   1.00
O2       0.72650    0.72650    0.66180   1.00
C1       0.75000    0.75000    0.85520   1.00
C1       0.75000    0.85520    0.75000   1.00
C1       0.64480    0.75000    0.75000   1.00
C1       0.85520    0.75000    0.75000   1.00
C1       0.75000    0.64480    0.75000   1.00
C1       0.75000    0.75000    0.64480   1.00
O1       0.25000    0.25000    0.75000   1.00
Zn1      0.21720    0.28280    0.78280   1.00
Zn1      0.28280    0.21720    0.78280   1.00
Zn1      0.28280    0.28280    0.71720   1.00
Zn1      0.21720    0.21720    0.71720   1.00
O2       0.22650    0.27350    0.83820   1.00
O2       0.22650    0.33820    0.77350   1.00
O2       0.16180    0.27350    0.77350   1.00
O2       0.27350    0.22650    0.83820   1.00
O2       0.33820    0.22650    0.77350   1.00
O2       0.27350    0.16180    0.77350   1.00
O2       0.27350    0.33820    0.72650   1.00
O2       0.33820    0.27350    0.72650   1.00
O2       0.27350    0.27350    0.66180   1.00
O2       0.16180    0.22650    0.72650   1.00
O2       0.22650    0.16180    0.72650   1.00
O2       0.22650    0.22650    0.66180   1.00
C1       0.25000    0.25000    0.85520   1.00
C1       0.25000    0.35520    0.75000   1.00
C1       0.14480    0.25000    0.75000   1.00
C1       0.35520    0.25000    0.75000   1.00
C1       0.25000    0.14480    0.75000   1.00
C1       0.25000    0.25000    0.64480   1.00
O1       0.25000    0.75000    0.25000   1.00
Zn1      0.21720    0.78280    0.28280   1.00
Zn1      0.28280    0.71720    0.28280   1.00
Zn1      0.28280    0.78280    0.21720   1.00
Zn1      0.21720    0.71720    0.21720   1.00
O2       0.22650    0.77350    0.33820   1.00
O2       0.22650    0.83820    0.27350   1.00
O2       0.16180    0.77350    0.27350   1.00
O2       0.27350    0.72650    0.33820   1.00
O2       0.33820    0.72650    0.27350   1.00
O2       0.27350    0.66180    0.27350   1.00
O2       0.27350    0.83820    0.22650   1.00
O2       0.33820    0.77350    0.22650   1.00
O2       0.27350    0.77350    0.16180   1.00
O2       0.16180    0.72650    0.22650   1.00
O2       0.22650    0.66180    0.22650   1.00
O2       0.22650    0.72650    0.16180   1.00
C1       0.25000    0.75000    0.35520   1.00
C1       0.25000    0.85520    0.25000   1.00
C1       0.14480    0.75000    0.25000   1.00
C1       0.35520    0.75000    0.25000   1.00
C1       0.25000    0.64480    0.25000   1.00
C1       0.25000    0.75000    0.14480   1.00
O1       0.75000    0.25000    0.25000   1.00
Zn1      0.71720    0.28280    0.28280   1.00
Zn1      0.78280    0.21720    0.28280   1.00
Zn1      0.78280    0.28280    0.21720   1.00
Zn1      0.71720    0.21720    0.21720   1.00
O2       0.72650    0.27350    0.33820   1.00
O2       0.72650    0.33820    0.27350   1.00
O2       0.66180    0.27350    0.27350   1.00
O2       0.77350    0.22650    0.33820   1.00
O2       0.83820    0.22650    0.27350   1.00
O2       0.77350    0.16180    0.27350   1.00
O2       0.77350    0.33820    0.22650   1.00
O2       0.83820    0.27350    0.22650   1.00
O2       0.77350    0.27350    0.16180   1.00
O2       0.66180    0.22650    0.22650   1.00
O2       0.72650    0.16180    0.22650   1.00
O2       0.72650    0.22650    0.16180   1.00
C1       0.75000    0.25000    0.35520   1.00
C1       0.75000    0.35520    0.25000   1.00
C1       0.64480    0.25000    0.25000   1.00
C1       0.85520    0.25000    0.25000   1.00
C1       0.75000    0.14480    0.25000   1.00
C1       0.75000    0.25000    0.14480   1.00
O1       0.25000    0.25000    0.25000   1.00
Zn1      0.28280    0.21720    0.21720   1.00
Zn1      0.21720    0.28280    0.21720   1.00
Zn1      0.21720    0.21720    0.28280   1.00
Zn1      0.28280    0.28280    0.28280   1.00
O2       0.27350    0.22650    0.16180   1.00
O2       0.27350    0.16180    0.22650   1.00
O2       0.33820    0.22650    0.22650   1.00
O2       0.22650    0.27350    0.16180   1.00
O2       0.16180    0.27350    0.22650   1.00
O2       0.22650    0.33820    0.22650   1.00
O2       0.22650    0.16180    0.27350   1.00
O2       0.16180    0.22650    0.27350   1.00
O2       0.22650    0.22650    0.33820   1.00
O2       0.33820    0.27350    0.27350   1.00
O2       0.27350    0.33820    0.27350   1.00
O2       0.27350    0.27350    0.33820   1.00
C1       0.25000    0.25000    0.14480   1.00
C1       0.25000    0.14480    0.25000   1.00
C1       0.35520    0.25000    0.25000   1.00
C1       0.14480    0.25000    0.25000   1.00
C1       0.25000    0.35520    0.25000   1.00
C1       0.25000    0.25000    0.35520   1.00
O1       0.75000    0.75000    0.25000   1.00
Zn1      0.78280    0.71720    0.21720   1.00
Zn1      0.71720    0.78280    0.21720   1.00
Zn1      0.71720    0.71720    0.28280   1.00
Zn1      0.78280    0.78280    0.28280   1.00
O2       0.77350    0.72650    0.16180   1.00
O2       0.77350    0.66180    0.22650   1.00
O2       0.83820    0.72650    0.22650   1.00
O2       0.72650    0.77350    0.16180   1.00
O2       0.66180    0.77350    0.22650   1.00
O2       0.72650    0.83820    0.22650   1.00
O2       0.72650    0.66180    0.27350   1.00
O2       0.66180    0.72650    0.27350   1.00
O2       0.72650    0.72650    0.33820   1.00
O2       0.83820    0.77350    0.27350   1.00
O2       0.77350    0.83820    0.27350   1.00
O2       0.77350    0.77350    0.33820   1.00
C1       0.75000    0.75000    0.14480   1.00
C1       0.75000    0.64480    0.25000   1.00
C1       0.85520    0.75000    0.25000   1.00
C1       0.64480    0.75000    0.25000   1.00
C1       0.75000    0.85520    0.25000   1.00
C1       0.75000    0.75000    0.35520   1.00
O1       0.75000    0.25000    0.75000   1.00
Zn1      0.78280    0.21720    0.71720   1.00
Zn1      0.71720    0.28280    0.71720   1.00
Zn1      0.71720    0.21720    0.78280   1.00
Zn1      0.78280    0.28280    0.78280   1.00
O2       0.77350    0.22650    0.66180   1.00
O2       0.77350    0.16180    0.72650   1.00
O2       0.83820    0.22650    0.72650   1.00
O2       0.72650    0.27350    0.66180   1.00
O2       0.66180    0.27350    0.72650   1.00
O2       0.72650    0.33820    0.72650   1.00
O2       0.72650    0.16180    0.77350   1.00
O2       0.66180    0.22650    0.77350   1.00
O2       0.72650    0.22650    0.83820   1.00
O2       0.83820    0.27350    0.77350   1.00
O2       0.77350    0.33820    0.77350   1.00
O2       0.77350    0.27350    0.83820   1.00
C1       0.75000    0.25000    0.64480   1.00
C1       0.75000    0.14480    0.75000   1.00
C1       0.85520    0.25000    0.75000   1.00
C1       0.64480    0.25000    0.75000   1.00
C1       0.75000    0.35520    0.75000   1.00
C1       0.75000    0.25000    0.85520   1.00
O1       0.25000    0.75000    0.75000   1.00
Zn1      0.28280    0.71720    0.71720   1.00
Zn1      0.21720    0.78280    0.71720   1.00
Zn1      0.21720    0.71720    0.78280   1.00
Zn1      0.28280    0.78280    0.78280   1.00
O2       0.27350    0.72650    0.66180   1.00
O2       0.27350    0.66180    0.72650   1.00
O2       0.33820    0.72650    0.72650   1.00
O2       0.22650    0.77350    0.66180   1.00
O2       0.16180    0.77350    0.72650   1.00
O2       0.22650    0.83820    0.72650   1.00
O2       0.22650    0.66180    0.77350   1.00
O2       0.16180    0.72650    0.77350   1.00
O2       0.22650    0.72650    0.83820   1.00
O2       0.33820    0.77350    0.77350   1.00
O2       0.27350    0.83820    0.77350   1.00
O2       0.27350    0.77350    0.83820   1.00
C1       0.25000    0.75000    0.64480   1.00
C1       0.25000    0.64480    0.75000   1.00
C1       0.35520    0.75000    0.75000   1.00
C1       0.14480    0.75000    0.75000   1.00
C1       0.25000    0.85520    0.75000   1.00
C1       0.25000    0.75000    0.85520   1.00
O1       0.91500    0.91500    0.91500   1.00
Zn1      0.88220    0.94780    0.94780   1.00
Zn1      0.94780    0.88220    0.94780   1.00
Zn1      0.94780    0.94780    0.88220   1.00
Zn1      0.88220    0.88220    0.88220   1.00
O2       0.89150    0.93850    1.00320   1.00
O2       0.89150    1.00320    0.93850   1.00
O2       0.82680    0.93850    0.93850   1.00
O2       0.93850    0.89150    1.00320   1.00
O2       1.00320    0.89150    0.93850   1.00
O2       0.93850    0.82680    0.93850   1.00
O2       0.93850    1.00320    0.89150   1.00
O2       1.00320    0.93850    0.89150   1.00
O2       0.93850    0.93850    0.82680   1.00
O2       0.82680    0.89150    0.89150   1.00
O2       0.89150    0.82680    0.89150   1.00
O2       0.89150    0.89150    0.82680   1.00
C1       0.91500    0.91500    1.02020   1.00
C1       0.91500    1.02020    0.91500   1.00
C1       0.80980    0.91500    0.91500   1.00
C1       1.02020    0.91500    0.91500   1.00
C1       0.91500    0.80980    0.91500   1.00
C1       0.91500    0.91500    0.80980   1.00
O1       0.41500    0.41500    0.91500   1.00
Zn1      0.38220    0.44780    0.94780   1.00
Zn1      0.44780    0.38220    0.94780   1.00
Zn1      0.44780    0.44780    0.88220   1.00
Zn1      0.38220    0.38220    0.88220   1.00
O2       0.39150    0.43850    1.00320   1.00
O2       0.39150    0.50320    0.93850   1.00
O2       0.32680    0.43850    0.93850   1.00
O2       0.43850    0.39150    1.00320   1.00
O2       0.50320    0.39150    0.93850   1.00
O2       0.43850    0.32680    0.93850   1.00
O2       0.43850    0.50320    0.89150   1.00
O2       0.50320    0.43850    0.89150   1.00
O2       0.43850    0.43850    0.82680   1.00
O2       0.32680    0.39150    0.89150   1.00
O2       0.39150    0.32680    0.89150   1.00
O2       0.39150    0.39150    0.82680   1.00
C1       0.41500    0.41500    1.02020   1.00
C1       0.41500    0.52020    0.91500   1.00
C1       0.30980    0.41500    0.91500   1.00
C1       0.52020    0.41500    0.91500   1.00
C1       0.41500    0.30980    0.91500   1.00
C1       0.41500    0.41500    0.80980   1.00
O1       0.41500    0.91500    0.41500   1.00
Zn1      0.38220    0.94780    0.44780   1.00
Zn1      0.44780    0.88220    0.44780   1.00
Zn1      0.44780    0.94780    0.38220   1.00
Zn1      0.38220    0.88220    0.38220   1.00
O2       0.39150    0.93850    0.50320   1.00
O2       0.39150    1.00320    0.43850   1.00
O2       0.32680    0.93850    0.43850   1.00
O2       0.43850    0.89150    0.50320   1.00
O2       0.50320    0.89150    0.43850   1.00
O2       0.43850    0.82680    0.43850   1.00
O2       0.43850    1.00320    0.39150   1.00
O2       0.50320    0.93850    0.39150   1.00
O2       0.43850    0.93850    0.32680   1.00
O2       0.32680    0.89150    0.39150   1.00
O2       0.39150    0.82680    0.39150   1.00
O2       0.39150    0.89150    0.32680   1.00
C1       0.41500    0.91500    0.52020   1.00
C1       0.41500    1.02020    0.41500   1.00
C1       0.30980    0.91500    0.41500   1.00
C1       0.52020    0.91500    0.41500   1.00
C1       0.41500    0.80980    0.41500   1.00
C1       0.41500    0.91500    0.30980   1.00
O1       0.91500    0.41500    0.41500   1.00
Zn1      0.88220    0.44780    0.44780   1.00
Zn1      0.94780    0.38220    0.44780   1.00
Zn1      0.94780    0.44780    0.38220   1.00
Zn1      0.88220    0.38220    0.38220   1.00
O2       0.89150    0.43850    0.50320   1.00
O2       0.89150    0.50320    0.43850   1.00
O2       0.82680    0.43850    0.43850   1.00
O2       0.93850    0.39150    0.50320   1.00
O2       1.00320    0.39150    0.43850   1.00
O2       0.93850    0.32680    0.43850   1.00
O2       0.93850    0.50320    0.39150   1.00
O2       1.00320    0.43850    0.39150   1.00
O2       0.93850    0.43850    0.32680   1.00
O2       0.82680    0.39150    0.39150   1.00
O2       0.89150    0.32680    0.39150   1.00
O2       0.89150    0.39150    0.32680   1.00
C1       0.91500    0.41500    0.52020   1.00
C1       0.91500    0.52020    0.41500   1.00
C1       0.80980    0.41500    0.41500   1.00
C1       1.02020    0.41500    0.41500   1.00
C1       0.91500    0.30980    0.41500   1.00
C1       0.91500    0.41500    0.30980   1.00
O1       0.41500    0.41500    0.41500   1.00
Zn1      0.44780    0.38220    0.38220   1.00
Zn1      0.38220    0.44780    0.38220   1.00
Zn1      0.38220    0.38220    0.44780   1.00
Zn1      0.44780    0.44780    0.44780   1.00
O2       0.43850    0.39150    0.32680   1.00
O2       0.43850    0.32680    0.39150   1.00
O2       0.50320    0.39150    0.39150   1.00
O2       0.39150    0.43850    0.32680   1.00
O2       0.32680    0.43850    0.39150   1.00
O2       0.39150    0.50320    0.39150   1.00
O2       0.39150    0.32680    0.43850   1.00
O2       0.32680    0.39150    0.43850   1.00
O2       0.39150    0.39150    0.50320   1.00
O2       0.50320    0.43850    0.43850   1.00
O2       0.43850    0.50320    0.43850   1.00
O2       0.43850    0.43850    0.50320   1.00
C1       0.41500    0.41500    0.30980   1.00
C1       0.41500    0.30980    0.41500   1.00
C1       0.52020    0.41500    0.41500   1.00
C1       0.30980    0.41500    0.41500   1.00
C1       0.41500    0.52020    0.41500   1.00
C1       0.41500    0.41500    0.52020   1.00
O1       0.91500    0.91500    0.41500   1.00
Zn1      0.94780    0.88220    0.38220   1.00
Zn1      0.88220    0.94780    0.38220   1.00
Zn1      0.88220    0.88220    0.44780   1.00
Zn1      0.94780    0.94780    0.44780   1.00
O2       0.93850    0.89150    0.32680   1.00
O2       0.93850    0.82680    0.39150   1.00
O2       1.00320    0.89150    0.39150   1.00
O2       0.89150    0.93850    0.32680   1.00
O2       0.82680    0.93850    0.39150   1.00
O2       0.89150    1.00320    0.39150   1.00
O2       0.89150    0.82680    0.43850   1.00
O2       0.82680    0.89150    0.43850   1.00
O2       0.89150    0.89150    0.50320   1.00
O2       1.00320    0.93850    0.43850   1.00
O2       0.93850    1.00320    0.43850   1.00
O2       0.93850    0.93850    0.50320   1.00
C1       0.91500    0.91500    0.30980   1.00
C1       0.91500    0.80980    0.41500   1.00
C1       1.02020    0.91500    0.41500   1.00
C1       0.80980    0.91500    0.41500   1.00
C1       0.91500    1.02020    0.41500   1.00
C1       0.91500    0.91500    0.52020   1.00
O1       0.91500    0.41500    0.91500   1.00
Zn1      0.94780    0.38220    0.88220   1.00
Zn1      0.88220    0.44780    0.88220   1.00
Zn1      0.88220    0.38220    0.94780   1.00
Zn1      0.94780    0.44780    0.94780   1.00
O2       0.93850    0.39150    0.82680   1.00
O2       0.93850    0.32680    0.89150   1.00
O2       1.00320    0.39150    0.89150   1.00
O2       0.89150    0.43850    0.82680   1.00
O2       0.82680    0.43850    0.89150   1.00
O2       0.89150    0.50320    0.89150   1.00
O2       0.89150    0.32680    0.93850   1.00
O2       0.82680    0.39150    0.93850   1.00
O2       0.89150    0.39150    1.00320   1.00
O2       1.00320    0.43850    0.93850   1.00
O2       0.93850    0.50320    0.93850   1.00
O2       0.93850    0.43850    1.00320   1.00
C1       0.91500    0.41500    0.80980   1.00
C1       0.91500    0.30980    0.91500   1.00
C1       1.02020    0.41500    0.91500   1.00
C1       0.80980    0.41500    0.91500   1.00
C1       0.91500    0.52020    0.91500   1.00
C1       0.91500    0.41500    1.02020   1.00
O1       0.41500    0.91500    0.91500   1.00
Zn1      0.44780    0.88220    0.88220   1.00
Zn1      0.38220    0.94780    0.88220   1.00
Zn1      0.38220    0.88220    0.94780   1.00
Zn1      0.44780    0.94780    0.94780   1.00
O2       0.43850    0.89150    0.82680   1.00
O2       0.43850    0.82680    0.89150   1.00
O2       0.50320    0.89150    0.89150   1.00
O2       0.39150    0.93850    0.82680   1.00
O2       0.32680    0.93850    0.89150   1.00
O2       0.39150    1.00320    0.89150   1.00
O2       0.39150    0.82680    0.93850   1.00
O2       0.32680    0.89150    0.93850   1.00
O2       0.39150    0.89150    1.00320   1.00
O2       0.50320    0.93850    0.93850   1.00
O2       0.43850    1.00320    0.93850   1.00
O2       0.43850    0.93850    1.00320   1.00
C1       0.41500    0.91500    0.80980   1.00
C1       0.41500    0.80980    0.91500   1.00
C1       0.52020    0.91500    0.91500   1.00
C1       0.30980    0.91500    0.91500   1.00
C1       0.41500    1.02020    0.91500   1.00
C1       0.41500    0.91500    1.02020   1.00
C4       0.74991    0.74995    0.97915   1.00
C4       0.75009    0.75005    1.02085   1.00
C3       0.74154    0.71619    0.95708   1.00
C3       0.71845    0.76548    1.04225   1.00
C3       0.75827    0.78443    0.95816   1.00
C3a      0.78187    0.73413    1.04263   1.00
C2       0.75067    0.75135    0.89483   1.00
C2       0.74909    0.74885    1.10517   1.00
C3       0.74195    0.71694    0.91566   1.00
C3       0.71801    0.76485    1.08359   1.00
C3       0.75881    0.78506    0.91680   1.00
C3       0.78080    0.73367    1.08415   1.00
H1       0.73471    0.68915    0.97192   1.00
H1       0.69378    0.77785    1.02685   1.00
H1       0.73546    0.69048    0.89968   1.00
H1       0.69316    0.77688    1.09895   1.00
H1       0.76589    0.81194    0.90179   1.00
H1       0.80507    0.72167    1.10043   1.00
C5       0.81774    0.71814    1.02239   1.00
H1       0.76546    0.81080    0.97401   1.00
H2       0.83751    0.70352    1.04354   1.00
H2       0.80878    0.69546    1.00103   1.00
N1       0.83931    0.74944    1.00292   1.00
C6       0.85468    0.78125    1.02012   1.00
C6       0.84773    0.75148    0.96460   1.00
C6       0.87284    0.80410    0.99243   1.00
C6       0.86840    0.78517    0.95711   1.00
H3       0.85265    0.78769    1.05099   1.00
H3       0.83899    0.73005    0.94309   1.00
H3       0.88769    0.83148    0.99741   1.00
H3       0.87901    0.79486    0.92903   1.00
C4       0.74995    0.97915    0.74991   1.00
C4       0.75005    1.02085    0.75009   1.00
C3       0.71619    0.95708    0.74154   1.00
C3       0.76548    1.04225    0.71845   1.00
C3       0.78443    0.95816    0.75827   1.00
C3a      0.73413    1.04263    0.78187   1.00
C2       0.75135    0.89483    0.75067   1.00
C2       0.74885    1.10517    0.74909   1.00
C3       0.71694    0.91566    0.74195   1.00
C3       0.76485    1.08359    0.71801   1.00
C3       0.78506    0.91680    0.75881   1.00
C3       0.73367    1.08415    0.78080   1.00
H1       0.68915    0.97192    0.73471   1.00
H1       0.77785    1.02685    0.69378   1.00
H1       0.69048    0.89968    0.73546   1.00
H1       0.77688    1.09895    0.69316   1.00
H1       0.81194    0.90179    0.76589   1.00
H1       0.72167    1.10043    0.80507   1.00
C5       0.71814    1.02239    0.81774   1.00
H1       0.81080    0.97401    0.76546   1.00
H2       0.70352    1.04354    0.83751   1.00
H2       0.69546    1.00103    0.80878   1.00
N1       0.74944    1.00292    0.83931   1.00
C6       0.78125    1.02012    0.85468   1.00
C6       0.75148    0.96460    0.84773   1.00
C6       0.80410    0.99243    0.87284   1.00
C6       0.78517    0.95711    0.86840   1.00
H3       0.78769    1.05099    0.85265   1.00
H3       0.73005    0.94309    0.83899   1.00
H3       0.83148    0.99741    0.88769   1.00
H3       0.79486    0.92903    0.87901   1.00
C4       0.52085    0.74991    0.75005   1.00
C4       0.47915    0.75009    0.74995   1.00
C3       0.54292    0.74154    0.78381   1.00
C3       0.45775    0.71845    0.73452   1.00
C3       0.54184    0.75827    0.71557   1.00
C3a      0.45737    0.78187    0.76587   1.00
C2       0.60517    0.75067    0.74865   1.00
C2       0.39483    0.74909    0.75115   1.00
C3       0.58434    0.74195    0.78306   1.00
C3       0.41641    0.71801    0.73515   1.00
C3       0.58320    0.75881    0.71494   1.00
C3       0.41585    0.78080    0.76633   1.00
H1       0.52808    0.73471    0.81085   1.00
H1       0.47315    0.69378    0.72215   1.00
H1       0.60032    0.73546    0.80952   1.00
H1       0.40105    0.69316    0.72312   1.00
H1       0.59821    0.76589    0.68806   1.00
H1       0.39957    0.80507    0.77833   1.00
C5       0.47761    0.81774    0.78186   1.00
H1       0.52599    0.76546    0.68920   1.00
H2       0.45646    0.83751    0.79648   1.00
H2       0.49897    0.80878    0.80454   1.00
N1       0.49708    0.83931    0.75056   1.00
C6       0.47988    0.85468    0.71875   1.00
C6       0.53540    0.84773    0.74852   1.00
C6       0.50757    0.87284    0.69590   1.00
C6       0.54289    0.86840    0.71483   1.00
H3       0.44901    0.85265    0.71231   1.00
H3       0.55691    0.83899    0.76995   1.00
H3       0.50259    0.88769    0.66852   1.00
H3       0.57097    0.87901    0.70514   1.00
C4       0.97915    0.74991    0.74995   1.00
C4       1.02085    0.75009    0.75005   1.00
C3       0.95708    0.74154    0.71619   1.00
C3       1.04225    0.71845    0.76548   1.00
C3       0.95816    0.75827    0.78443   1.00
C3a      1.04263    0.78187    0.73413   1.00
C2       0.89483    0.75067    0.75135   1.00
C2       1.10517    0.74909    0.74885   1.00
C3       0.91566    0.74195    0.71694   1.00
C3       1.08359    0.71801    0.76485   1.00
C3       0.91680    0.75881    0.78506   1.00
C3       1.08415    0.78080    0.73367   1.00
H1       0.97192    0.73471    0.68915   1.00
H1       1.02685    0.69378    0.77785   1.00
H1       0.89968    0.73546    0.69048   1.00
H1       1.09895    0.69316    0.77688   1.00
H1       0.90179    0.76589    0.81194   1.00
H1       1.10043    0.80507    0.72167   1.00
C5       1.02239    0.81774    0.71814   1.00
H1       0.97401    0.76546    0.81080   1.00
H2       1.04354    0.83751    0.70352   1.00
H2       1.00103    0.80878    0.69546   1.00
N1       1.00292    0.83931    0.74944   1.00
C6       1.02012    0.85468    0.78125   1.00
C6       0.96460    0.84773    0.75148   1.00
C6       0.99243    0.87284    0.80410   1.00
C6       0.95711    0.86840    0.78517   1.00
H3       1.05099    0.85265    0.78769   1.00
H3       0.94309    0.83899    0.73005   1.00
H3       0.99741    0.88769    0.83148   1.00
H3       0.92903    0.87901    0.79486   1.00
C4       0.75005    0.52085    0.74991   1.00
C4       0.74995    0.47915    0.75009   1.00
C3       0.78381    0.54292    0.74154   1.00
C3       0.73452    0.45775    0.71845   1.00
C3       0.71557    0.54184    0.75827   1.00
C3a      0.76587    0.45737    0.78187   1.00
C2       0.74865    0.60517    0.75067   1.00
C2       0.75115    0.39483    0.74909   1.00
C3       0.78306    0.58434    0.74195   1.00
C3       0.73515    0.41641    0.71801   1.00
C3       0.71494    0.58320    0.75881   1.00
C3       0.76633    0.41585    0.78080   1.00
H1       0.81085    0.52808    0.73471   1.00
H1       0.72215    0.47315    0.69378   1.00
H1       0.80952    0.60032    0.73546   1.00
H1       0.72312    0.40105    0.69316   1.00
H1       0.68806    0.59821    0.76589   1.00
H1       0.77833    0.39957    0.80507   1.00
C5       0.78186    0.47761    0.81774   1.00
H1       0.68920    0.52599    0.76546   1.00
H2       0.79648    0.45646    0.83751   1.00
H2       0.80454    0.49897    0.80878   1.00
N1       0.75056    0.49708    0.83931   1.00
C6       0.71875    0.47988    0.85468   1.00
C6       0.74852    0.53540    0.84773   1.00
C6       0.69590    0.50757    0.87284   1.00
C6       0.71483    0.54289    0.86840   1.00
H3       0.71231    0.44901    0.85265   1.00
H3       0.76995    0.55691    0.83899   1.00
H3       0.66852    0.50259    0.88769   1.00
H3       0.70514    0.57097    0.87901   1.00
C4       0.74991    0.75005    0.52085   1.00
C4       0.75009    0.74995    0.47915   1.00
C3       0.74154    0.78381    0.54292   1.00
C3       0.71845    0.73452    0.45775   1.00
C3       0.75827    0.71557    0.54184   1.00
C3a      0.78187    0.76587    0.45737   1.00
C2       0.75067    0.74865    0.60517   1.00
C2       0.74909    0.75115    0.39483   1.00
C3       0.74195    0.78306    0.58434   1.00
C3       0.71801    0.73515    0.41641   1.00
C3       0.75881    0.71494    0.58320   1.00
C3       0.78080    0.76633    0.41585   1.00
H1       0.73471    0.81085    0.52808   1.00
H1       0.69378    0.72215    0.47315   1.00
H1       0.73546    0.80952    0.60032   1.00
H1       0.69316    0.72312    0.40105   1.00
H1       0.76589    0.68806    0.59821   1.00
H1       0.80507    0.77833    0.39957   1.00
C5       0.81774    0.78186    0.47761   1.00
H1       0.76546    0.68920    0.52599   1.00
H2       0.83751    0.79648    0.45646   1.00
H2       0.80878    0.80454    0.49897   1.00
N1       0.83931    0.75056    0.49708   1.00
C6       0.85468    0.71875    0.47988   1.00
C6       0.84773    0.74852    0.53540   1.00
C6       0.87284    0.69590    0.50757   1.00
C6       0.86840    0.71483    0.54289   1.00
H3       0.85265    0.71231    0.44901   1.00
H3       0.83899    0.76995    0.55691   1.00
H3       0.88769    0.66852    0.50259   1.00
H3       0.87901    0.70514    0.57097   1.00
C4       0.24991    0.24995    0.97915   1.00
C4       0.25009    0.25005    1.02085   1.00
C3       0.24154    0.21619    0.95708   1.00
C3       0.21845    0.26548    1.04225   1.00
C3       0.25827    0.28443    0.95816   1.00
C3a      0.28187    0.23413    1.04263   1.00
C2       0.25067    0.25135    0.89483   1.00
C2       0.24909    0.24885    1.10517   1.00
C3       0.24195    0.21694    0.91566   1.00
C3       0.21801    0.26485    1.08359   1.00
C3       0.25881    0.28506    0.91680   1.00
C3       0.28080    0.23367    1.08415   1.00
H1       0.23471    0.18915    0.97192   1.00
H1       0.19378    0.27785    1.02685   1.00
H1       0.23546    0.19048    0.89968   1.00
H1       0.19316    0.27688    1.09895   1.00
H1       0.26589    0.31194    0.90179   1.00
H1       0.30507    0.22167    1.10043   1.00
C5       0.31774    0.21814    1.02239   1.00
H1       0.26546    0.31080    0.97401   1.00
H2       0.33751    0.20352    1.04354   1.00
H2       0.30878    0.19546    1.00103   1.00
N1       0.33931    0.24944    1.00292   1.00
C6       0.35468    0.28125    1.02012   1.00
C6       0.34773    0.25148    0.96460   1.00
C6       0.37284    0.30410    0.99243   1.00
C6       0.36840    0.28517    0.95711   1.00
H3       0.35265    0.28769    1.05099   1.00
H3       0.33899    0.23005    0.94309   1.00
H3       0.38769    0.33148    0.99741   1.00
H3       0.37901    0.29486    0.92903   1.00
C4       0.24995    0.47915    0.74991   1.00
C4       0.25005    0.52085    0.75009   1.00
C3       0.21619    0.45708    0.74154   1.00
C3       0.26548    0.54225    0.71845   1.00
C3       0.28443    0.45816    0.75827   1.00
C3a      0.23413    0.54263    0.78187   1.00
C2       0.25135    0.39483    0.75067   1.00
C2       0.24885    0.60517    0.74909   1.00
C3       0.21694    0.41566    0.74195   1.00
C3       0.26485    0.58359    0.71801   1.00
C3       0.28506    0.41680    0.75881   1.00
C3       0.23367    0.58415    0.78080   1.00
H1       0.18915    0.47192    0.73471   1.00
H1       0.27785    0.52685    0.69378   1.00
H1       0.19048    0.39968    0.73546   1.00
H1       0.27688    0.59895    0.69316   1.00
H1       0.31194    0.40179    0.76589   1.00
H1       0.22167    0.60043    0.80507   1.00
C5       0.21814    0.52239    0.81774   1.00
H1       0.31080    0.47401    0.76546   1.00
H2       0.20352    0.54354    0.83751   1.00
H2       0.19546    0.50103    0.80878   1.00
N1       0.24944    0.50292    0.83931   1.00
C6       0.28125    0.52012    0.85468   1.00
C6       0.25148    0.46460    0.84773   1.00
C6       0.30410    0.49243    0.87284   1.00
C6       0.28517    0.45711    0.86840   1.00
H3       0.28769    0.55099    0.85265   1.00
H3       0.23005    0.44309    0.83899   1.00
H3       0.33148    0.49741    0.88769   1.00
H3       0.29486    0.42903    0.87901   1.00
C4       0.02085    0.24991    0.75005   1.00
C4       -0.02085   0.25009    0.74995   1.00
C3       0.04292    0.24154    0.78381   1.00
C3       -0.04225   0.21845    0.73452   1.00
C3       0.04184    0.25827    0.71557   1.00
C3a      -0.04263   0.28187    0.76587   1.00
C2       0.10517    0.25067    0.74865   1.00
C2       -0.10517   0.24909    0.75115   1.00
C3       0.08434    0.24195    0.78306   1.00
C3       -0.08359   0.21801    0.73515   1.00
C3       0.08320    0.25881    0.71494   1.00
C3       -0.08415   0.28080    0.76633   1.00
H1       0.02808    0.23471    0.81085   1.00
H1       -0.02685   0.19378    0.72215   1.00
H1       0.10032    0.23546    0.80952   1.00
H1       -0.09895   0.19316    0.72312   1.00
H1       0.09821    0.26589    0.68806   1.00
H1       -0.10043   0.30507    0.77833   1.00
C5       -0.02239   0.31774    0.78186   1.00
H1       0.02599    0.26546    0.68920   1.00
H2       -0.04354   0.33751    0.79648   1.00
H2       -0.00103   0.30878    0.80454   1.00
N1       -0.00292   0.33931    0.75056   1.00
C6       -0.02012   0.35468    0.71875   1.00
C6       0.03540    0.34773    0.74852   1.00
C6       0.00757    0.37284    0.69590   1.00
C6       0.04289    0.36840    0.71483   1.00
H3       -0.05099   0.35265    0.71231   1.00
H3       0.05691    0.33899    0.76995   1.00
H3       0.00259    0.38769    0.66852   1.00
H3       0.07097    0.37901    0.70514   1.00
C4       0.47915    0.24991    0.74995   1.00
C4       0.52085    0.25009    0.75005   1.00
C3       0.45708    0.24154    0.71619   1.00
C3       0.54225    0.21845    0.76548   1.00
C3       0.45816    0.25827    0.78443   1.00
C3a      0.54263    0.28187    0.73413   1.00
C2       0.39483    0.25067    0.75135   1.00
C2       0.60517    0.24909    0.74885   1.00
C3       0.41566    0.24195    0.71694   1.00
C3       0.58359    0.21801    0.76485   1.00
C3       0.41680    0.25881    0.78506   1.00
C3       0.58415    0.28080    0.73367   1.00
H1       0.47192    0.23471    0.68915   1.00
H1       0.52685    0.19378    0.77785   1.00
H1       0.39968    0.23546    0.69048   1.00
H1       0.59895    0.19316    0.77688   1.00
H1       0.40179    0.26589    0.81194   1.00
H1       0.60043    0.30507    0.72167   1.00
C5       0.52239    0.31774    0.71814   1.00
H1       0.47401    0.26546    0.81080   1.00
H2       0.54354    0.33751    0.70352   1.00
H2       0.50103    0.30878    0.69546   1.00
N1       0.50292    0.33931    0.74944   1.00
C6       0.52012    0.35468    0.78125   1.00
C6       0.46460    0.34773    0.75148   1.00
C6       0.49243    0.37284    0.80410   1.00
C6       0.45711    0.36840    0.78517   1.00
H3       0.55099    0.35265    0.78769   1.00
H3       0.44309    0.33899    0.73005   1.00
H3       0.49741    0.38769    0.83148   1.00
H3       0.42903    0.37901    0.79486   1.00
C4       0.25005    0.02085    0.74991   1.00
C4       0.24995    -0.02085   0.75009   1.00
C3       0.28381    0.04292    0.74154   1.00
C3       0.23452    -0.04225   0.71845   1.00
C3       0.21557    0.04184    0.75827   1.00
C3a      0.26587    -0.04263   0.78187   1.00
C2       0.24865    0.10517    0.75067   1.00
C2       0.25115    -0.10517   0.74909   1.00
C3       0.28306    0.08434    0.74195   1.00
C3       0.23515    -0.08359   0.71801   1.00
C3       0.21494    0.08320    0.75881   1.00
C3       0.26633    -0.08415   0.78080   1.00
H1       0.31085    0.02808    0.73471   1.00
H1       0.22215    -0.02685   0.69378   1.00
H1       0.30952    0.10032    0.73546   1.00
H1       0.22312    -0.09895   0.69316   1.00
H1       0.18806    0.09821    0.76589   1.00
H1       0.27833    -0.10043   0.80507   1.00
C5       0.28186    -0.02239   0.81774   1.00
H1       0.18920    0.02599    0.76546   1.00
H2       0.29648    -0.04354   0.83751   1.00
H2       0.30454    -0.00103   0.80878   1.00
N1       0.25056    -0.00292   0.83931   1.00
C6       0.21875    -0.02012   0.85468   1.00
C6       0.24852    0.03540    0.84773   1.00
C6       0.19590    0.00757    0.87284   1.00
C6       0.21483    0.04289    0.86840   1.00
H3       0.21231    -0.05099   0.85265   1.00
H3       0.26995    0.05691    0.83899   1.00
H3       0.16852    0.00259    0.88769   1.00
H3       0.20514    0.07097    0.87901   1.00
C4       0.24991    0.25005    0.52085   1.00
C4       0.25009    0.24995    0.47915   1.00
C3       0.24154    0.28381    0.54292   1.00
C3       0.21845    0.23452    0.45775   1.00
C3       0.25827    0.21557    0.54184   1.00
C3a      0.28187    0.26587    0.45737   1.00
C2       0.25067    0.24865    0.60517   1.00
C2       0.24909    0.25115    0.39483   1.00
C3       0.24195    0.28306    0.58434   1.00
C3       0.21801    0.23515    0.41641   1.00
C3       0.25881    0.21494    0.58320   1.00
C3       0.28080    0.26633    0.41585   1.00
H1       0.23471    0.31085    0.52808   1.00
H1       0.19378    0.22215    0.47315   1.00
H1       0.23546    0.30952    0.60032   1.00
H1       0.19316    0.22312    0.40105   1.00
H1       0.26589    0.18806    0.59821   1.00
H1       0.30507    0.27833    0.39957   1.00
C5       0.31774    0.28186    0.47761   1.00
H1       0.26546    0.18920    0.52599   1.00
H2       0.33751    0.29648    0.45646   1.00
H2       0.30878    0.30454    0.49897   1.00
N1       0.33931    0.25056    0.49708   1.00
C6       0.35468    0.21875    0.47988   1.00
C6       0.34773    0.24852    0.53540   1.00
C6       0.37284    0.19590    0.50757   1.00
C6       0.36840    0.21483    0.54289   1.00
H3       0.35265    0.21231    0.44901   1.00
H3       0.33899    0.26995    0.55691   1.00
H3       0.38769    0.16852    0.50259   1.00
H3       0.37901    0.20514    0.57097   1.00
C4       0.24991    0.74995    0.47915   1.00
C4       0.25009    0.75005    0.52085   1.00
C3       0.24154    0.71619    0.45708   1.00
C3       0.21845    0.76548    0.54225   1.00
C3       0.25827    0.78443    0.45816   1.00
C3a      0.28187    0.73413    0.54263   1.00
C2       0.25067    0.75135    0.39483   1.00
C2       0.24909    0.74885    0.60517   1.00
C3       0.24195    0.71694    0.41566   1.00
C3       0.21801    0.76485    0.58359   1.00
C3       0.25881    0.78506    0.41680   1.00
C3       0.28080    0.73367    0.58415   1.00
H1       0.23471    0.68915    0.47192   1.00
H1       0.19378    0.77785    0.52685   1.00
H1       0.23546    0.69048    0.39968   1.00
H1       0.19316    0.77688    0.59895   1.00
H1       0.26589    0.81194    0.40179   1.00
H1       0.30507    0.72167    0.60043   1.00
C5       0.31774    0.71814    0.52239   1.00
H1       0.26546    0.81080    0.47401   1.00
H2       0.33751    0.70352    0.54354   1.00
H2       0.30878    0.69546    0.50103   1.00
N1       0.33931    0.74944    0.50292   1.00
C6       0.35468    0.78125    0.52012   1.00
C6       0.34773    0.75148    0.46460   1.00
C6       0.37284    0.80410    0.49243   1.00
C6       0.36840    0.78517    0.45711   1.00
H3       0.35265    0.78769    0.55099   1.00
H3       0.33899    0.73005    0.44309   1.00
H3       0.38769    0.83148    0.49741   1.00
H3       0.37901    0.79486    0.42903   1.00
C4       0.24995    0.97915    0.24991   1.00
C4       0.25005    1.02085    0.25009   1.00
C3       0.21619    0.95708    0.24154   1.00
C3       0.26548    1.04225    0.21845   1.00
C3       0.28443    0.95816    0.25827   1.00
C3a      0.23413    1.04263    0.28187   1.00
C2       0.25135    0.89483    0.25067   1.00
C2       0.24885    1.10517    0.24909   1.00
C3       0.21694    0.91566    0.24195   1.00
C3       0.26485    1.08359    0.21801   1.00
C3       0.28506    0.91680    0.25881   1.00
C3       0.23367    1.08415    0.28080   1.00
H1       0.18915    0.97192    0.23471   1.00
H1       0.27785    1.02685    0.19378   1.00
H1       0.19048    0.89968    0.23546   1.00
H1       0.27688    1.09895    0.19316   1.00
H1       0.31194    0.90179    0.26589   1.00
H1       0.22167    1.10043    0.30507   1.00
C5       0.21814    1.02239    0.31774   1.00
H1       0.31080    0.97401    0.26546   1.00
H2       0.20352    1.04354    0.33751   1.00
H2       0.19546    1.00103    0.30878   1.00
N1       0.24944    1.00292    0.33931   1.00
C6       0.28125    1.02012    0.35468   1.00
C6       0.25148    0.96460    0.34773   1.00
C6       0.30410    0.99243    0.37284   1.00
C6       0.28517    0.95711    0.36840   1.00
H3       0.28769    1.05099    0.35265   1.00
H3       0.23005    0.94309    0.33899   1.00
H3       0.33148    0.99741    0.38769   1.00
H3       0.29486    0.92903    0.37901   1.00
C4       0.02085    0.74991    0.25005   1.00
C4       -0.02085   0.75009    0.24995   1.00
C3       0.04292    0.74154    0.28381   1.00
C3       -0.04225   0.71845    0.23452   1.00
C3       0.04184    0.75827    0.21557   1.00
C3a      -0.04263   0.78187    0.26587   1.00
C2       0.10517    0.75067    0.24865   1.00
C2       -0.10517   0.74909    0.25115   1.00
C3       0.08434    0.74195    0.28306   1.00
C3       -0.08359   0.71801    0.23515   1.00
C3       0.08320    0.75881    0.21494   1.00
C3       -0.08415   0.78080    0.26633   1.00
H1       0.02808    0.73471    0.31085   1.00
H1       -0.02685   0.69378    0.22215   1.00
H1       0.10032    0.73546    0.30952   1.00
H1       -0.09895   0.69316    0.22312   1.00
H1       0.09821    0.76589    0.18806   1.00
H1       -0.10043   0.80507    0.27833   1.00
C5       -0.02239   0.81774    0.28186   1.00
H1       0.02599    0.76546    0.18920   1.00
H2       -0.04354   0.83751    0.29648   1.00
H2       -0.00103   0.80878    0.30454   1.00
N1       -0.00292   0.83931    0.25056   1.00
C6       -0.02012   0.85468    0.21875   1.00
C6       0.03540    0.84773    0.24852   1.00
C6       0.00757    0.87284    0.19590   1.00
C6       0.04289    0.86840    0.21483   1.00
H3       -0.05099   0.85265    0.21231   1.00
H3       0.05691    0.83899    0.26995   1.00
H3       0.00259    0.88769    0.16852   1.00
H3       0.07097    0.87901    0.20514   1.00
C4       0.47915    0.74991    0.24995   1.00
C4       0.52085    0.75009    0.25005   1.00
C3       0.45708    0.74154    0.21619   1.00
C3       0.54225    0.71845    0.26548   1.00
C3       0.45816    0.75827    0.28443   1.00
C3a      0.54263    0.78187    0.23413   1.00
C2       0.39483    0.75067    0.25135   1.00
C2       0.60517    0.74909    0.24885   1.00
C3       0.41566    0.74195    0.21694   1.00
C3       0.58359    0.71801    0.26485   1.00
C3       0.41680    0.75881    0.28506   1.00
C3       0.58415    0.78080    0.23367   1.00
H1       0.47192    0.73471    0.18915   1.00
H1       0.52685    0.69378    0.27785   1.00
H1       0.39968    0.73546    0.19048   1.00
H1       0.59895    0.69316    0.27688   1.00
H1       0.40179    0.76589    0.31194   1.00
H1       0.60043    0.80507    0.22167   1.00
C5       0.52239    0.81774    0.21814   1.00
H1       0.47401    0.76546    0.31080   1.00
H2       0.54354    0.83751    0.20352   1.00
H2       0.50103    0.80878    0.19546   1.00
N1       0.50292    0.83931    0.24944   1.00
C6       0.52012    0.85468    0.28125   1.00
C6       0.46460    0.84773    0.25148   1.00
C6       0.49243    0.87284    0.30410   1.00
C6       0.45711    0.86840    0.28517   1.00
H3       0.55099    0.85265    0.28769   1.00
H3       0.44309    0.83899    0.23005   1.00
H3       0.49741    0.88769    0.33148   1.00
H3       0.42903    0.87901    0.29486   1.00
C4       0.25005    0.52085    0.24991   1.00
C4       0.24995    0.47915    0.25009   1.00
C3       0.28381    0.54292    0.24154   1.00
C3       0.23452    0.45775    0.21845   1.00
C3       0.21557    0.54184    0.25827   1.00
C3a      0.26587    0.45737    0.28187   1.00
C2       0.24865    0.60517    0.25067   1.00
C2       0.25115    0.39483    0.24909   1.00
C3       0.28306    0.58434    0.24195   1.00
C3       0.23515    0.41641    0.21801   1.00
C3       0.21494    0.58320    0.25881   1.00
C3       0.26633    0.41585    0.28080   1.00
H1       0.31085    0.52808    0.23471   1.00
H1       0.22215    0.47315    0.19378   1.00
H1       0.30952    0.60032    0.23546   1.00
H1       0.22312    0.40105    0.19316   1.00
H1       0.18806    0.59821    0.26589   1.00
H1       0.27833    0.39957    0.30507   1.00
C5       0.28186    0.47761    0.31774   1.00
H1       0.18920    0.52599    0.26546   1.00
H2       0.29648    0.45646    0.33751   1.00
H2       0.30454    0.49897    0.30878   1.00
N1       0.25056    0.49708    0.33931   1.00
C6       0.21875    0.47988    0.35468   1.00
C6       0.24852    0.53540    0.34773   1.00
C6       0.19590    0.50757    0.37284   1.00
C6       0.21483    0.54289    0.36840   1.00
H3       0.21231    0.44901    0.35265   1.00
H3       0.26995    0.55691    0.33899   1.00
H3       0.16852    0.50259    0.38769   1.00
H3       0.20514    0.57097    0.37901   1.00
C4       0.24991    0.75005    0.02085   1.00
C4       0.25009    0.74995    -0.02085   1.00
C3       0.24154    0.78381    0.04292   1.00
C3       0.21845    0.73452    -0.04225   1.00
C3       0.25827    0.71557    0.04184   1.00
C3a      0.28187    0.76587    -0.04263   1.00
C2       0.25067    0.74865    0.10517   1.00
C2       0.24909    0.75115    -0.10517   1.00
C3       0.24195    0.78306    0.08434   1.00
C3       0.21801    0.73515    -0.08359   1.00
C3       0.25881    0.71494    0.08320   1.00
C3       0.28080    0.76633    -0.08415   1.00
H1       0.23471    0.81085    0.02808   1.00
H1       0.19378    0.72215    -0.02685   1.00
H1       0.23546    0.80952    0.10032   1.00
H1       0.19316    0.72312    -0.09895   1.00
H1       0.26589    0.68806    0.09821   1.00
H1       0.30507    0.77833    -0.10043   1.00
C5       0.31774    0.78186    -0.02239   1.00
H1       0.26546    0.68920    0.02599   1.00
H2       0.33751    0.79648    -0.04354   1.00
H2       0.30878    0.80454    -0.00103   1.00
N1       0.33931    0.75056    -0.00292   1.00
C6       0.35468    0.71875    -0.02012   1.00
C6       0.34773    0.74852    0.03540   1.00
C6       0.37284    0.69590    0.00757   1.00
C6       0.36840    0.71483    0.04289   1.00
H3       0.35265    0.71231    -0.05099   1.00
H3       0.33899    0.76995    0.05691   1.00
H3       0.38769    0.66852    0.00259   1.00
H3       0.37901    0.70514    0.07097   1.00
C4       0.74991    0.24995    0.47915   1.00
C4       0.75009    0.25005    0.52085   1.00
C3       0.74154    0.21619    0.45708   1.00
C3       0.71845    0.26548    0.54225   1.00
C3       0.75827    0.28443    0.45816   1.00
C3a      0.78187    0.23413    0.54263   1.00
C2       0.75067    0.25135    0.39483   1.00
C2       0.74909    0.24885    0.60517   1.00
C3       0.74195    0.21694    0.41566   1.00
C3       0.71801    0.26485    0.58359   1.00
C3       0.75881    0.28506    0.41680   1.00
C3       0.78080    0.23367    0.58415   1.00
H1       0.73471    0.18915    0.47192   1.00
H1       0.69378    0.27785    0.52685   1.00
H1       0.73546    0.19048    0.39968   1.00
H1       0.69316    0.27688    0.59895   1.00
H1       0.76589    0.31194    0.40179   1.00
H1       0.80507    0.22167    0.60043   1.00
C5       0.81774    0.21814    0.52239   1.00
H1       0.76546    0.31080    0.47401   1.00
H2       0.83751    0.20352    0.54354   1.00
H2       0.80878    0.19546    0.50103   1.00
N1       0.83931    0.24944    0.50292   1.00
C6       0.85468    0.28125    0.52012   1.00
C6       0.84773    0.25148    0.46460   1.00
C6       0.87284    0.30410    0.49243   1.00
C6       0.86840    0.28517    0.45711   1.00
H3       0.85265    0.28769    0.55099   1.00
H3       0.83899    0.23005    0.44309   1.00
H3       0.88769    0.33148    0.49741   1.00
H3       0.87901    0.29486    0.42903   1.00
C4       0.74995    0.47915    0.24991   1.00
C4       0.75005    0.52085    0.25009   1.00
C3       0.71619    0.45708    0.24154   1.00
C3       0.76548    0.54225    0.21845   1.00
C3       0.78443    0.45816    0.25827   1.00
C3a      0.73413    0.54263    0.28187   1.00
C2       0.75135    0.39483    0.25067   1.00
C2       0.74885    0.60517    0.24909   1.00
C3       0.71694    0.41566    0.24195   1.00
C3       0.76485    0.58359    0.21801   1.00
C3       0.78506    0.41680    0.25881   1.00
C3       0.73367    0.58415    0.28080   1.00
H1       0.68915    0.47192    0.23471   1.00
H1       0.77785    0.52685    0.19378   1.00
H1       0.69048    0.39968    0.23546   1.00
H1       0.77688    0.59895    0.19316   1.00
H1       0.81194    0.40179    0.26589   1.00
H1       0.72167    0.60043    0.30507   1.00
C5       0.71814    0.52239    0.31774   1.00
H1       0.81080    0.47401    0.26546   1.00
H2       0.70352    0.54354    0.33751   1.00
H2       0.69546    0.50103    0.30878   1.00
N1       0.74944    0.50292    0.33931   1.00
C6       0.78125    0.52012    0.35468   1.00
C6       0.75148    0.46460    0.34773   1.00
C6       0.80410    0.49243    0.37284   1.00
C6       0.78517    0.45711    0.36840   1.00
H3       0.78769    0.55099    0.35265   1.00
H3       0.73005    0.44309    0.33899   1.00
H3       0.83148    0.49741    0.38769   1.00
H3       0.79486    0.42903    0.37901   1.00
C4       0.52085    0.24991    0.25005   1.00
C4       0.47915    0.25009    0.24995   1.00
C3       0.54292    0.24154    0.28381   1.00
C3       0.45775    0.21845    0.23452   1.00
C3       0.54184    0.25827    0.21557   1.00
C3a      0.45737    0.28187    0.26587   1.00
C2       0.60517    0.25067    0.24865   1.00
C2       0.39483    0.24909    0.25115   1.00
C3       0.58434    0.24195    0.28306   1.00
C3       0.41641    0.21801    0.23515   1.00
C3       0.58320    0.25881    0.21494   1.00
C3       0.41585    0.28080    0.26633   1.00
H1       0.52808    0.23471    0.31085   1.00
H1       0.47315    0.19378    0.22215   1.00
H1       0.60032    0.23546    0.30952   1.00
H1       0.40105    0.19316    0.22312   1.00
H1       0.59821    0.26589    0.18806   1.00
H1       0.39957    0.30507    0.27833   1.00
C5       0.47761    0.31774    0.28186   1.00
H1       0.52599    0.26546    0.18920   1.00
H2       0.45646    0.33751    0.29648   1.00
H2       0.49897    0.30878    0.30454   1.00
N1       0.49708    0.33931    0.25056   1.00
C6       0.47988    0.35468    0.21875   1.00
C6       0.53540    0.34773    0.24852   1.00
C6       0.50757    0.37284    0.19590   1.00
C6       0.54289    0.36840    0.21483   1.00
H3       0.44901    0.35265    0.21231   1.00
H3       0.55691    0.33899    0.26995   1.00
H3       0.50259    0.38769    0.16852   1.00
H3       0.57097    0.37901    0.20514   1.00
C4       0.97915    0.24991    0.24995   1.00
C4       1.02085    0.25009    0.25005   1.00
C3       0.95708    0.24154    0.21619   1.00
C3       1.04225    0.21845    0.26548   1.00
C3       0.95816    0.25827    0.28443   1.00
C3a      1.04263    0.28187    0.23413   1.00
C2       0.89483    0.25067    0.25135   1.00
C2       1.10517    0.24909    0.24885   1.00
C3       0.91566    0.24195    0.21694   1.00
C3       1.08359    0.21801    0.26485   1.00
C3       0.91680    0.25881    0.28506   1.00
C3       1.08415    0.28080    0.23367   1.00
H1       0.97192    0.23471    0.18915   1.00
H1       1.02685    0.19378    0.27785   1.00
H1       0.89968    0.23546    0.19048   1.00
H1       1.09895    0.19316    0.27688   1.00
H1       0.90179    0.26589    0.31194   1.00
H1       1.10043    0.30507    0.22167   1.00
C5       1.02239    0.31774    0.21814   1.00
H1       0.97401    0.26546    0.31080   1.00
H2       1.04354    0.33751    0.20352   1.00
H2       1.00103    0.30878    0.19546   1.00
N1       1.00292    0.33931    0.24944   1.00
C6       1.02012    0.35468    0.28125   1.00
C6       0.96460    0.34773    0.25148   1.00
C6       0.99243    0.37284    0.30410   1.00
C6       0.95711    0.36840    0.28517   1.00
H3       1.05099    0.35265    0.28769   1.00
H3       0.94309    0.33899    0.23005   1.00
H3       0.99741    0.38769    0.33148   1.00
H3       0.92903    0.37901    0.29486   1.00
C4       0.75005    0.02085    0.24991   1.00
C4       0.74995    -0.02085   0.25009   1.00
C3       0.78381    0.04292    0.24154   1.00
C3       0.73452    -0.04225   0.21845   1.00
C3       0.71557    0.04184    0.25827   1.00
C3a      0.76587    -0.04263   0.28187   1.00
C2       0.74865    0.10517    0.25067   1.00
C2       0.75115    -0.10517   0.24909   1.00
C3       0.78306    0.08434    0.24195   1.00
C3       0.73515    -0.08359   0.21801   1.00
C3       0.71494    0.08320    0.25881   1.00
C3       0.76633    -0.08415   0.28080   1.00
H1       0.81085    0.02808    0.23471   1.00
H1       0.72215    -0.02685   0.19378   1.00
H1       0.80952    0.10032    0.23546   1.00
H1       0.72312    -0.09895   0.19316   1.00
H1       0.68806    0.09821    0.26589   1.00
H1       0.77833    -0.10043   0.30507   1.00
C5       0.78186    -0.02239   0.31774   1.00
H1       0.68920    0.02599    0.26546   1.00
H2       0.79648    -0.04354   0.33751   1.00
H2       0.80454    -0.00103   0.30878   1.00
N1       0.75056    -0.00292   0.33931   1.00
C6       0.71875    -0.02012   0.35468   1.00
C6       0.74852    0.03540    0.34773   1.00
C6       0.69590    0.00757    0.37284   1.00
C6       0.71483    0.04289    0.36840   1.00
H3       0.71231    -0.05099   0.35265   1.00
H3       0.76995    0.05691    0.33899   1.00
H3       0.66852    0.00259    0.38769   1.00
H3       0.70514    0.07097    0.37901   1.00
C4       0.74991    0.25005    0.02085   1.00
C4       0.75009    0.24995    -0.02085   1.00
C3       0.74154    0.28381    0.04292   1.00
C3       0.71845    0.23452    -0.04225   1.00
C3       0.75827    0.21557    0.04184   1.00
C3a      0.78187    0.26587    -0.04263   1.00
C2       0.75067    0.24865    0.10517   1.00
C2       0.74909    0.25115    -0.10517   1.00
C3       0.74195    0.28306    0.08434   1.00
C3       0.71801    0.23515    -0.08359   1.00
C3       0.75881    0.21494    0.08320   1.00
C3       0.78080    0.26633    -0.08415   1.00
H1       0.73471    0.31085    0.02808   1.00
H1       0.69378    0.22215    -0.02685   1.00
H1       0.73546    0.30952    0.10032   1.00
H1       0.69316    0.22312    -0.09895   1.00
H1       0.76589    0.18806    0.09821   1.00
H1       0.80507    0.27833    -0.10043   1.00
C5       0.81774    0.28186    -0.02239   1.00
H1       0.76546    0.18920    0.02599   1.00
H2       0.83751    0.29648    -0.04354   1.00
H2       0.80878    0.30454    -0.00103   1.00
N1       0.83931    0.25056    -0.00292   1.00
C6       0.85468    0.21875    -0.02012   1.00
C6       0.84773    0.24852    0.03540   1.00
C6       0.87284    0.19590    0.00757   1.00
C6       0.86840    0.21483    0.04289   1.00
H3       0.85265    0.21231    -0.05099   1.00
H3       0.83899    0.26995    0.05691   1.00
H3       0.88769    0.16852    0.00259   1.00
H3       0.87901    0.20514    0.07097   1.00
C4       0.91491    0.91495    1.14415   1.00
C4       0.91509    0.91505    1.18585   1.00
C3       0.90654    0.88119    1.12208   1.00
C3       0.88345    0.93048    1.20725   1.00
C3       0.92327    0.94943    1.12316   1.00
C3a      0.94687    0.89913    1.20763   1.00
C2       0.91567    0.91635    1.05983   1.00
C2       0.91409    0.91385    1.27017   1.00
C3       0.90695    0.88194    1.08066   1.00
C3       0.88301    0.92985    1.24859   1.00
C3       0.92381    0.95006    1.08180   1.00
C3       0.94580    0.89867    1.24915   1.00
H1       0.89971    0.85415    1.13692   1.00
H1       0.85878    0.94285    1.19185   1.00
H1       0.90046    0.85548    1.06468   1.00
H1       0.85816    0.94188    1.26395   1.00
H1       0.93089    0.97694    1.06679   1.00
H1       0.97007    0.88667    1.26543   1.00
C5       0.98274    0.88314    1.18739   1.00
H1       0.93046    0.97580    1.13901   1.00
H2       1.00251    0.86852    1.20854   1.00
H2       0.97378    0.86046    1.16603   1.00
N1       1.00431    0.91444    1.16792   1.00
C6       1.01968    0.94625    1.18512   1.00
C6       1.01273    0.91648    1.12960   1.00
C6       1.03784    0.96910    1.15743   1.00
C6       1.03340    0.95017    1.12211   1.00
H3       1.01765    0.95269    1.21599   1.00
H3       1.00399    0.89505    1.10809   1.00
H3       1.05269    0.99648    1.16241   1.00
H3       1.04401    0.95986    1.09403   1.00
C4       0.91495    1.14415    0.91491   1.00
C4       0.91505    1.18585    0.91509   1.00
C3       0.88119    1.12208    0.90654   1.00
C3       0.93048    1.20725    0.88345   1.00
C3       0.94943    1.12316    0.92327   1.00
C3a      0.89913    1.20763    0.94687   1.00
C2       0.91635    1.05983    0.91567   1.00
C2       0.91385    1.27017    0.91409   1.00
C3       0.88194    1.08066    0.90695   1.00
C3       0.92985    1.24859    0.88301   1.00
C3       0.95006    1.08180    0.92381   1.00
C3       0.89867    1.24915    0.94580   1.00
H1       0.85415    1.13692    0.89971   1.00
H1       0.94285    1.19185    0.85878   1.00
H1       0.85548    1.06468    0.90046   1.00
H1       0.94188    1.26395    0.85816   1.00
H1       0.97694    1.06679    0.93089   1.00
H1       0.88667    1.26543    0.97007   1.00
C5       0.88314    1.18739    0.98274   1.00
H1       0.97580    1.13901    0.93046   1.00
H2       0.86852    1.20854    1.00251   1.00
H2       0.86046    1.16603    0.97378   1.00
N1       0.91444    1.16792    1.00431   1.00
C6       0.94625    1.18512    1.01968   1.00
C6       0.91648    1.12960    1.01273   1.00
C6       0.96910    1.15743    1.03784   1.00
C6       0.95017    1.12211    1.03340   1.00
H3       0.95269    1.21599    1.01765   1.00
H3       0.89505    1.10809    1.00399   1.00
H3       0.99648    1.16241    1.05269   1.00
H3       0.95986    1.09403    1.04401   1.00
C4       0.68585    0.91491    0.91505   1.00
C4       0.64415    0.91509    0.91495   1.00
C3       0.70792    0.90654    0.94881   1.00
C3       0.62275    0.88345    0.89952   1.00
C3       0.70684    0.92327    0.88057   1.00
C3a      0.62237    0.94687    0.93087   1.00
C2       0.77017    0.91567    0.91365   1.00
C2       0.55983    0.91409    0.91615   1.00
C3       0.74934    0.90695    0.94806   1.00
C3       0.58141    0.88301    0.90015   1.00
C3       0.74820    0.92381    0.87994   1.00
C3       0.58085    0.94580    0.93133   1.00
H1       0.69308    0.89971    0.97585   1.00
H1       0.63815    0.85878    0.88715   1.00
H1       0.76532    0.90046    0.97452   1.00
H1       0.56605    0.85816    0.88812   1.00
H1       0.76321    0.93089    0.85306   1.00
H1       0.56457    0.97007    0.94333   1.00
C5       0.64261    0.98274    0.94686   1.00
H1       0.69099    0.93046    0.85420   1.00
H2       0.62146    1.00251    0.96148   1.00
H2       0.66397    0.97378    0.96954   1.00
N1       0.66208    1.00431    0.91556   1.00
C6       0.64488    1.01968    0.88375   1.00
C6       0.70040    1.01273    0.91352   1.00
C6       0.67257    1.03784    0.86090   1.00
C6       0.70789    1.03340    0.87983   1.00
H3       0.61401    1.01765    0.87731   1.00
H3       0.72191    1.00399    0.93495   1.00
H3       0.66759    1.05269    0.83352   1.00
H3       0.73597    1.04401    0.87014   1.00
C4       1.14415    0.91491    0.91495   1.00
C4       1.18585    0.91509    0.91505   1.00
C3       1.12208    0.90654    0.88119   1.00
C3       1.20725    0.88345    0.93048   1.00
C3       1.12316    0.92327    0.94943   1.00
C3a      1.20763    0.94687    0.89913   1.00
C2       1.05983    0.91567    0.91635   1.00
C2       1.27017    0.91409    0.91385   1.00
C3       1.08066    0.90695    0.88194   1.00
C3       1.24859    0.88301    0.92985   1.00
C3       1.08180    0.92381    0.95006   1.00
C3       1.24915    0.94580    0.89867   1.00
H1       1.13692    0.89971    0.85415   1.00
H1       1.19185    0.85878    0.94285   1.00
H1       1.06468    0.90046    0.85548   1.00
H1       1.26395    0.85816    0.94188   1.00
H1       1.06679    0.93089    0.97694   1.00
H1       1.26543    0.97007    0.88667   1.00
C5       1.18739    0.98274    0.88314   1.00
H1       1.13901    0.93046    0.97580   1.00
H2       1.20854    1.00251    0.86852   1.00
H2       1.16603    0.97378    0.86046   1.00
N1       1.16792    1.00431    0.91444   1.00
C6       1.18512    1.01968    0.94625   1.00
C6       1.12960    1.01273    0.91648   1.00
C6       1.15743    1.03784    0.96910   1.00
C6       1.12211    1.03340    0.95017   1.00
H3       1.21599    1.01765    0.95269   1.00
H3       1.10809    1.00399    0.89505   1.00
H3       1.16241    1.05269    0.99648   1.00
H3       1.09403    1.04401    0.95986   1.00
C4       0.91505    0.68585    0.91491   1.00
C4       0.91495    0.64415    0.91509   1.00
C3       0.94881    0.70792    0.90654   1.00
C3       0.89952    0.62275    0.88345   1.00
C3       0.88057    0.70684    0.92327   1.00
C3a      0.93087    0.62237    0.94687   1.00
C2       0.91365    0.77017    0.91567   1.00
C2       0.91615    0.55983    0.91409   1.00
C3       0.94806    0.74934    0.90695   1.00
C3       0.90015    0.58141    0.88301   1.00
C3       0.87994    0.74820    0.92381   1.00
C3       0.93133    0.58085    0.94580   1.00
H1       0.97585    0.69308    0.89971   1.00
H1       0.88715    0.63815    0.85878   1.00
H1       0.97452    0.76532    0.90046   1.00
H1       0.88812    0.56605    0.85816   1.00
H1       0.85306    0.76321    0.93089   1.00
H1       0.94333    0.56457    0.97007   1.00
C5       0.94686    0.64261    0.98274   1.00
H1       0.85420    0.69099    0.93046   1.00
H2       0.96148    0.62146    1.00251   1.00
H2       0.96954    0.66397    0.97378   1.00
N1       0.91556    0.66208    1.00431   1.00
C6       0.88375    0.64488    1.01968   1.00
C6       0.91352    0.70040    1.01273   1.00
C6       0.86090    0.67257    1.03784   1.00
C6       0.87983    0.70789    1.03340   1.00
H3       0.87731    0.61401    1.01765   1.00
H3       0.93495    0.72191    1.00399   1.00
H3       0.83352    0.66759    1.05269   1.00
H3       0.87014    0.73597    1.04401   1.00
C4       0.91491    0.91505    0.68585   1.00
C4       0.91509    0.91495    0.64415   1.00
C3       0.90654    0.94881    0.70792   1.00
C3       0.88345    0.89952    0.62275   1.00
C3       0.92327    0.88057    0.70684   1.00
C3a      0.94687    0.93087    0.62237   1.00
C2       0.91567    0.91365    0.77017   1.00
C2       0.91409    0.91615    0.55983   1.00
C3       0.90695    0.94806    0.74934   1.00
C3       0.88301    0.90015    0.58141   1.00
C3       0.92381    0.87994    0.74820   1.00
C3       0.94580    0.93133    0.58085   1.00
H1       0.89971    0.97585    0.69308   1.00
H1       0.85878    0.88715    0.63815   1.00
H1       0.90046    0.97452    0.76532   1.00
H1       0.85816    0.88812    0.56605   1.00
H1       0.93089    0.85306    0.76321   1.00
H1       0.97007    0.94333    0.56457   1.00
C5       0.98274    0.94686    0.64261   1.00
H1       0.93046    0.85420    0.69099   1.00
H2       1.00251    0.96148    0.62146   1.00
H2       0.97378    0.96954    0.66397   1.00
N1       1.00431    0.91556    0.66208   1.00
C6       1.01968    0.88375    0.64488   1.00
C6       1.01273    0.91352    0.70040   1.00
C6       1.03784    0.86090    0.67257   1.00
C6       1.03340    0.87983    0.70789   1.00
H3       1.01765    0.87731    0.61401   1.00
H3       1.00399    0.93495    0.72191   1.00
H3       1.05269    0.83352    0.66759   1.00
H3       1.04401    0.87014    0.73597   1.00
C4       0.41491    0.41495    1.14415   1.00
C4       0.41509    0.41505    1.18585   1.00
C3       0.40654    0.38119    1.12208   1.00
C3       0.38345    0.43048    1.20725   1.00
C3       0.42327    0.44943    1.12316   1.00
C3a      0.44687    0.39913    1.20763   1.00
C2       0.41567    0.41635    1.05983   1.00
C2       0.41409    0.41385    1.27017   1.00
C3       0.40695    0.38194    1.08066   1.00
C3       0.38301    0.42985    1.24859   1.00
C3       0.42381    0.45006    1.08180   1.00
C3       0.44580    0.39867    1.24915   1.00
H1       0.39971    0.35415    1.13692   1.00
H1       0.35878    0.44285    1.19185   1.00
H1       0.40046    0.35548    1.06468   1.00
H1       0.35816    0.44188    1.26395   1.00
H1       0.43089    0.47694    1.06679   1.00
H1       0.47007    0.38667    1.26543   1.00
C5       0.48274    0.38314    1.18739   1.00
H1       0.43046    0.47580    1.13901   1.00
H2       0.50251    0.36852    1.20854   1.00
H2       0.47378    0.36046    1.16603   1.00
N1       0.50431    0.41444    1.16792   1.00
C6       0.51968    0.44625    1.18512   1.00
C6       0.51273    0.41648    1.12960   1.00
C6       0.53784    0.46910    1.15743   1.00
C6       0.53340    0.45017    1.12211   1.00
H3       0.51765    0.45269    1.21599   1.00
H3       0.50399    0.39505    1.10809   1.00
H3       0.55269    0.49648    1.16241   1.00
H3       0.54401    0.45986    1.09403   1.00
C4       0.41495    0.64415    0.91491   1.00
C4       0.41505    0.68585    0.91509   1.00
C3       0.38119    0.62208    0.90654   1.00
C3       0.43048    0.70725    0.88345   1.00
C3       0.44943    0.62316    0.92327   1.00
C3a      0.39913    0.70763    0.94687   1.00
C2       0.41635    0.55983    0.91567   1.00
C2       0.41385    0.77017    0.91409   1.00
C3       0.38194    0.58066    0.90695   1.00
C3       0.42985    0.74859    0.88301   1.00
C3       0.45006    0.58180    0.92381   1.00
C3       0.39867    0.74915    0.94580   1.00
H1       0.35415    0.63692    0.89971   1.00
H1       0.44285    0.69185    0.85878   1.00
H1       0.35548    0.56468    0.90046   1.00
H1       0.44188    0.76395    0.85816   1.00
H1       0.47694    0.56679    0.93089   1.00
H1       0.38667    0.76543    0.97007   1.00
C5       0.38314    0.68739    0.98274   1.00
H1       0.47580    0.63901    0.93046   1.00
H2       0.36852    0.70854    1.00251   1.00
H2       0.36046    0.66603    0.97378   1.00
N1       0.41444    0.66792    1.00431   1.00
C6       0.44625    0.68512    1.01968   1.00
C6       0.41648    0.62960    1.01273   1.00
C6       0.46910    0.65743    1.03784   1.00
C6       0.45017    0.62211    1.03340   1.00
H3       0.45269    0.71599    1.01765   1.00
H3       0.39505    0.60809    1.00399   1.00
H3       0.49648    0.66241    1.05269   1.00
H3       0.45986    0.59403    1.04401   1.00
C4       0.18585    0.41491    0.91505   1.00
C4       0.14415    0.41509    0.91495   1.00
C3       0.20792    0.40654    0.94881   1.00
C3       0.12275    0.38345    0.89952   1.00
C3       0.20684    0.42327    0.88057   1.00
C3a      0.12237    0.44687    0.93087   1.00
C2       0.27017    0.41567    0.91365   1.00
C2       0.05983    0.41409    0.91615   1.00
C3       0.24934    0.40695    0.94806   1.00
C3       0.08141    0.38301    0.90015   1.00
C3       0.24820    0.42381    0.87994   1.00
C3       0.08085    0.44580    0.93133   1.00
H1       0.19308    0.39971    0.97585   1.00
H1       0.13815    0.35878    0.88715   1.00
H1       0.26532    0.40046    0.97452   1.00
H1       0.06605    0.35816    0.88812   1.00
H1       0.26321    0.43089    0.85306   1.00
H1       0.06457    0.47007    0.94333   1.00
C5       0.14261    0.48274    0.94686   1.00
H1       0.19099    0.43046    0.85420   1.00
H2       0.12146    0.50251    0.96148   1.00
H2       0.16397    0.47378    0.96954   1.00
N1       0.16208    0.50431    0.91556   1.00
C6       0.14488    0.51968    0.88375   1.00
C6       0.20040    0.51273    0.91352   1.00
C6       0.17257    0.53784    0.86090   1.00
C6       0.20789    0.53340    0.87983   1.00
H3       0.11401    0.51765    0.87731   1.00
H3       0.22191    0.50399    0.93495   1.00
H3       0.16759    0.55269    0.83352   1.00
H3       0.23597    0.54401    0.87014   1.00
C4       0.64415    0.41491    0.91495   1.00
C4       0.68585    0.41509    0.91505   1.00
C3       0.62208    0.40654    0.88119   1.00
C3       0.70725    0.38345    0.93048   1.00
C3       0.62316    0.42327    0.94943   1.00
C3a      0.70763    0.44687    0.89913   1.00
C2       0.55983    0.41567    0.91635   1.00
C2       0.77017    0.41409    0.91385   1.00
C3       0.58066    0.40695    0.88194   1.00
C3       0.74859    0.38301    0.92985   1.00
C3       0.58180    0.42381    0.95006   1.00
C3       0.74915    0.44580    0.89867   1.00
H1       0.63692    0.39971    0.85415   1.00
H1       0.69185    0.35878    0.94285   1.00
H1       0.56468    0.40046    0.85548   1.00
H1       0.76395    0.35816    0.94188   1.00
H1       0.56679    0.43089    0.97694   1.00
H1       0.76543    0.47007    0.88667   1.00
C5       0.68739    0.48274    0.88314   1.00
H1       0.63901    0.43046    0.97580   1.00
H2       0.70854    0.50251    0.86852   1.00
H2       0.66603    0.47378    0.86046   1.00
N1       0.66792    0.50431    0.91444   1.00
C6       0.68512    0.51968    0.94625   1.00
C6       0.62960    0.51273    0.91648   1.00
C6       0.65743    0.53784    0.96910   1.00
C6       0.62211    0.53340    0.95017   1.00
H3       0.71599    0.51765    0.95269   1.00
H3       0.60809    0.50399    0.89505   1.00
H3       0.66241    0.55269    0.99648   1.00
H3       0.59403    0.54401    0.95986   1.00
C4       0.41505    0.18585    0.91491   1.00
C4       0.41495    0.14415    0.91509   1.00
C3       0.44881    0.20792    0.90654   1.00
C3       0.39952    0.12275    0.88345   1.00
C3       0.38057    0.20684    0.92327   1.00
C3a      0.43087    0.12237    0.94687   1.00
C2       0.41365    0.27017    0.91567   1.00
C2       0.41615    0.05983    0.91409   1.00
C3       0.44806    0.24934    0.90695   1.00
C3       0.40015    0.08141    0.88301   1.00
C3       0.37994    0.24820    0.92381   1.00
C3       0.43133    0.08085    0.94580   1.00
H1       0.47585    0.19308    0.89971   1.00
H1       0.38715    0.13815    0.85878   1.00
H1       0.47452    0.26532    0.90046   1.00
H1       0.38812    0.06605    0.85816   1.00
H1       0.35306    0.26321    0.93089   1.00
H1       0.44333    0.06457    0.97007   1.00
C5       0.44686    0.14261    0.98274   1.00
H1       0.35420    0.19099    0.93046   1.00
H2       0.46148    0.12146    1.00251   1.00
H2       0.46954    0.16397    0.97378   1.00
N1       0.41556    0.16208    1.00431   1.00
C6       0.38375    0.14488    1.01968   1.00
C6       0.41352    0.20040    1.01273   1.00
C6       0.36090    0.17257    1.03784   1.00
C6       0.37983    0.20789    1.03340   1.00
H3       0.37731    0.11401    1.01765   1.00
H3       0.43495    0.22191    1.00399   1.00
H3       0.33352    0.16759    1.05269   1.00
H3       0.37014    0.23597    1.04401   1.00
C4       0.41491    0.41505    0.68585   1.00
C4       0.41509    0.41495    0.64415   1.00
C3       0.40654    0.44881    0.70792   1.00
C3       0.38345    0.39952    0.62275   1.00
C3       0.42327    0.38057    0.70684   1.00
C3a      0.44687    0.43087    0.62237   1.00
C2       0.41567    0.41365    0.77017   1.00
C2       0.41409    0.41615    0.55983   1.00
C3       0.40695    0.44806    0.74934   1.00
C3       0.38301    0.40015    0.58141   1.00
C3       0.42381    0.37994    0.74820   1.00
C3       0.44580    0.43133    0.58085   1.00
H1       0.39971    0.47585    0.69308   1.00
H1       0.35878    0.38715    0.63815   1.00
H1       0.40046    0.47452    0.76532   1.00
H1       0.35816    0.38812    0.56605   1.00
H1       0.43089    0.35306    0.76321   1.00
H1       0.47007    0.44333    0.56457   1.00
C5       0.48274    0.44686    0.64261   1.00
H1       0.43046    0.35420    0.69099   1.00
H2       0.50251    0.46148    0.62146   1.00
H2       0.47378    0.46954    0.66397   1.00
N1       0.50431    0.41556    0.66208   1.00
C6       0.51968    0.38375    0.64488   1.00
C6       0.51273    0.41352    0.70040   1.00
C6       0.53784    0.36090    0.67257   1.00
C6       0.53340    0.37983    0.70789   1.00
H3       0.51765    0.37731    0.61401   1.00
H3       0.50399    0.43495    0.72191   1.00
H3       0.55269    0.33352    0.66759   1.00
H3       0.54401    0.37014    0.73597   1.00
C4       0.41491    0.91495    0.64415   1.00
C4       0.41509    0.91505    0.68585   1.00
C3       0.40654    0.88119    0.62208   1.00
C3       0.38345    0.93048    0.70725   1.00
C3       0.42327    0.94943    0.62316   1.00
C3a      0.44687    0.89913    0.70763   1.00
C2       0.41567    0.91635    0.55983   1.00
C2       0.41409    0.91385    0.77017   1.00
C3       0.40695    0.88194    0.58066   1.00
C3       0.38301    0.92985    0.74859   1.00
C3       0.42381    0.95006    0.58180   1.00
C3       0.44580    0.89867    0.74915   1.00
H1       0.39971    0.85415    0.63692   1.00
H1       0.35878    0.94285    0.69185   1.00
H1       0.40046    0.85548    0.56468   1.00
H1       0.35816    0.94188    0.76395   1.00
H1       0.43089    0.97694    0.56679   1.00
H1       0.47007    0.88667    0.76543   1.00
C5       0.48274    0.88314    0.68739   1.00
H1       0.43046    0.97580    0.63901   1.00
H2       0.50251    0.86852    0.70854   1.00
H2       0.47378    0.86046    0.66603   1.00
N1       0.50431    0.91444    0.66792   1.00
C6       0.51968    0.94625    0.68512   1.00
C6       0.51273    0.91648    0.62960   1.00
C6       0.53784    0.96910    0.65743   1.00
C6       0.53340    0.95017    0.62211   1.00
H3       0.51765    0.95269    0.71599   1.00
H3       0.50399    0.89505    0.60809   1.00
H3       0.55269    0.99648    0.66241   1.00
H3       0.54401    0.95986    0.59403   1.00
C4       0.41495    1.14415    0.41491   1.00
C4       0.41505    1.18585    0.41509   1.00
C3       0.38119    1.12208    0.40654   1.00
C3       0.43048    1.20725    0.38345   1.00
C3       0.44943    1.12316    0.42327   1.00
C3a      0.39913    1.20763    0.44687   1.00
C2       0.41635    1.05983    0.41567   1.00
C2       0.41385    1.27017    0.41409   1.00
C3       0.38194    1.08066    0.40695   1.00
C3       0.42985    1.24859    0.38301   1.00
C3       0.45006    1.08180    0.42381   1.00
C3       0.39867    1.24915    0.44580   1.00
H1       0.35415    1.13692    0.39971   1.00
H1       0.44285    1.19185    0.35878   1.00
H1       0.35548    1.06468    0.40046   1.00
H1       0.44188    1.26395    0.35816   1.00
H1       0.47694    1.06679    0.43089   1.00
H1       0.38667    1.26543    0.47007   1.00
C5       0.38314    1.18739    0.48274   1.00
H1       0.47580    1.13901    0.43046   1.00
H2       0.36852    1.20854    0.50251   1.00
H2       0.36046    1.16603    0.47378   1.00
N1       0.41444    1.16792    0.50431   1.00
C6       0.44625    1.18512    0.51968   1.00
C6       0.41648    1.12960    0.51273   1.00
C6       0.46910    1.15743    0.53784   1.00
C6       0.45017    1.12211    0.53340   1.00
H3       0.45269    1.21599    0.51765   1.00
H3       0.39505    1.10809    0.50399   1.00
H3       0.49648    1.16241    0.55269   1.00
H3       0.45986    1.09403    0.54401   1.00
C4       0.18585    0.91491    0.41505   1.00
C4       0.14415    0.91509    0.41495   1.00
C3       0.20792    0.90654    0.44881   1.00
C3       0.12275    0.88345    0.39952   1.00
C3       0.20684    0.92327    0.38057   1.00
C3a      0.12237    0.94687    0.43087   1.00
C2       0.27017    0.91567    0.41365   1.00
C2       0.05983    0.91409    0.41615   1.00
C3       0.24934    0.90695    0.44806   1.00
C3       0.08141    0.88301    0.40015   1.00
C3       0.24820    0.92381    0.37994   1.00
C3       0.08085    0.94580    0.43133   1.00
H1       0.19308    0.89971    0.47585   1.00
H1       0.13815    0.85878    0.38715   1.00
H1       0.26532    0.90046    0.47452   1.00
H1       0.06605    0.85816    0.38812   1.00
H1       0.26321    0.93089    0.35306   1.00
H1       0.06457    0.97007    0.44333   1.00
C5       0.14261    0.98274    0.44686   1.00
H1       0.19099    0.93046    0.35420   1.00
H2       0.12146    1.00251    0.46148   1.00
H2       0.16397    0.97378    0.46954   1.00
N1       0.16208    1.00431    0.41556   1.00
C6       0.14488    1.01968    0.38375   1.00
C6       0.20040    1.01273    0.41352   1.00
C6       0.17257    1.03784    0.36090   1.00
C6       0.20789    1.03340    0.37983   1.00
H3       0.11401    1.01765    0.37731   1.00
H3       0.22191    1.00399    0.43495   1.00
H3       0.16759    1.05269    0.33352   1.00
H3       0.23597    1.04401    0.37014   1.00
C4       0.64415    0.91491    0.41495   1.00
C4       0.68585    0.91509    0.41505   1.00
C3       0.62208    0.90654    0.38119   1.00
C3       0.70725    0.88345    0.43048   1.00
C3       0.62316    0.92327    0.44943   1.00
C3a      0.70763    0.94687    0.39913   1.00
C2       0.55983    0.91567    0.41635   1.00
C2       0.77017    0.91409    0.41385   1.00
C3       0.58066    0.90695    0.38194   1.00
C3       0.74859    0.88301    0.42985   1.00
C3       0.58180    0.92381    0.45006   1.00
C3       0.74915    0.94580    0.39867   1.00
H1       0.63692    0.89971    0.35415   1.00
H1       0.69185    0.85878    0.44285   1.00
H1       0.56468    0.90046    0.35548   1.00
H1       0.76395    0.85816    0.44188   1.00
H1       0.56679    0.93089    0.47694   1.00
H1       0.76543    0.97007    0.38667   1.00
C5       0.68739    0.98274    0.38314   1.00
H1       0.63901    0.93046    0.47580   1.00
H2       0.70854    1.00251    0.36852   1.00
H2       0.66603    0.97378    0.36046   1.00
N1       0.66792    1.00431    0.41444   1.00
C6       0.68512    1.01968    0.44625   1.00
C6       0.62960    1.01273    0.41648   1.00
C6       0.65743    1.03784    0.46910   1.00
C6       0.62211    1.03340    0.45017   1.00
H3       0.71599    1.01765    0.45269   1.00
H3       0.60809    1.00399    0.39505   1.00
H3       0.66241    1.05269    0.49648   1.00
H3       0.59403    1.04401    0.45986   1.00
C4       0.41505    0.68585    0.41491   1.00
C4       0.41495    0.64415    0.41509   1.00
C3       0.44881    0.70792    0.40654   1.00
C3       0.39952    0.62275    0.38345   1.00
C3       0.38057    0.70684    0.42327   1.00
C3a      0.43087    0.62237    0.44687   1.00
C2       0.41365    0.77017    0.41567   1.00
C2       0.41615    0.55983    0.41409   1.00
C3       0.44806    0.74934    0.40695   1.00
C3       0.40015    0.58141    0.38301   1.00
C3       0.37994    0.74820    0.42381   1.00
C3       0.43133    0.58085    0.44580   1.00
H1       0.47585    0.69308    0.39971   1.00
H1       0.38715    0.63815    0.35878   1.00
H1       0.47452    0.76532    0.40046   1.00
H1       0.38812    0.56605    0.35816   1.00
H1       0.35306    0.76321    0.43089   1.00
H1       0.44333    0.56457    0.47007   1.00
C5       0.44686    0.64261    0.48274   1.00
H1       0.35420    0.69099    0.43046   1.00
H2       0.46148    0.62146    0.50251   1.00
H2       0.46954    0.66397    0.47378   1.00
N1       0.41556    0.66208    0.50431   1.00
C6       0.38375    0.64488    0.51968   1.00
C6       0.41352    0.70040    0.51273   1.00
C6       0.36090    0.67257    0.53784   1.00
C6       0.37983    0.70789    0.53340   1.00
H3       0.37731    0.61401    0.51765   1.00
H3       0.43495    0.72191    0.50399   1.00
H3       0.33352    0.66759    0.55269   1.00
H3       0.37014    0.73597    0.54401   1.00
C4       0.41491    0.91505    0.18585   1.00
C4       0.41509    0.91495    0.14415   1.00
C3       0.40654    0.94881    0.20792   1.00
C3       0.38345    0.89952    0.12275   1.00
C3       0.42327    0.88057    0.20684   1.00
C3a      0.44687    0.93087    0.12237   1.00
C2       0.41567    0.91365    0.27017   1.00
C2       0.41409    0.91615    0.05983   1.00
C3       0.40695    0.94806    0.24934   1.00
C3       0.38301    0.90015    0.08141   1.00
C3       0.42381    0.87994    0.24820   1.00
C3       0.44580    0.93133    0.08085   1.00
H1       0.39971    0.97585    0.19308   1.00
H1       0.35878    0.88715    0.13815   1.00
H1       0.40046    0.97452    0.26532   1.00
H1       0.35816    0.88812    0.06605   1.00
H1       0.43089    0.85306    0.26321   1.00
H1       0.47007    0.94333    0.06457   1.00
C5       0.48274    0.94686    0.14261   1.00
H1       0.43046    0.85420    0.19099   1.00
H2       0.50251    0.96148    0.12146   1.00
H2       0.47378    0.96954    0.16397   1.00
N1       0.50431    0.91556    0.16208   1.00
C6       0.51968    0.88375    0.14488   1.00
C6       0.51273    0.91352    0.20040   1.00
C6       0.53784    0.86090    0.17257   1.00
C6       0.53340    0.87983    0.20789   1.00
H3       0.51765    0.87731    0.11401   1.00
H3       0.50399    0.93495    0.22191   1.00
H3       0.55269    0.83352    0.16759   1.00
H3       0.54401    0.87014    0.23597   1.00
C4       0.91491    0.41495    0.64415   1.00
C4       0.91509    0.41505    0.68585   1.00
C3       0.90654    0.38119    0.62208   1.00
C3       0.88345    0.43048    0.70725   1.00
C3       0.92327    0.44943    0.62316   1.00
C3a      0.94687    0.39913    0.70763   1.00
C2       0.91567    0.41635    0.55983   1.00
C2       0.91409    0.41385    0.77017   1.00
C3       0.90695    0.38194    0.58066   1.00
C3       0.88301    0.42985    0.74859   1.00
C3       0.92381    0.45006    0.58180   1.00
C3       0.94580    0.39867    0.74915   1.00
H1       0.89971    0.35415    0.63692   1.00
H1       0.85878    0.44285    0.69185   1.00
H1       0.90046    0.35548    0.56468   1.00
H1       0.85816    0.44188    0.76395   1.00
H1       0.93089    0.47694    0.56679   1.00
H1       0.97007    0.38667    0.76543   1.00
C5       0.98274    0.38314    0.68739   1.00
H1       0.93046    0.47580    0.63901   1.00
H2       1.00251    0.36852    0.70854   1.00
H2       0.97378    0.36046    0.66603   1.00
N1       1.00431    0.41444    0.66792   1.00
C6       1.01968    0.44625    0.68512   1.00
C6       1.01273    0.41648    0.62960   1.00
C6       1.03784    0.46910    0.65743   1.00
C6       1.03340    0.45017    0.62211   1.00
H3       1.01765    0.45269    0.71599   1.00
H3       1.00399    0.39505    0.60809   1.00
H3       1.05269    0.49648    0.66241   1.00
H3       1.04401    0.45986    0.59403   1.00
C4       0.91495    0.64415    0.41491   1.00
C4       0.91505    0.68585    0.41509   1.00
C3       0.88119    0.62208    0.40654   1.00
C3       0.93048    0.70725    0.38345   1.00
C3       0.94943    0.62316    0.42327   1.00
C3a      0.89913    0.70763    0.44687   1.00
C2       0.91635    0.55983    0.41567   1.00
C2       0.91385    0.77017    0.41409   1.00
C3       0.88194    0.58066    0.40695   1.00
C3       0.92985    0.74859    0.38301   1.00
C3       0.95006    0.58180    0.42381   1.00
C3       0.89867    0.74915    0.44580   1.00
H1       0.85415    0.63692    0.39971   1.00
H1       0.94285    0.69185    0.35878   1.00
H1       0.85548    0.56468    0.40046   1.00
H1       0.94188    0.76395    0.35816   1.00
H1       0.97694    0.56679    0.43089   1.00
H1       0.88667    0.76543    0.47007   1.00
C5       0.88314    0.68739    0.48274   1.00
H1       0.97580    0.63901    0.43046   1.00
H2       0.86852    0.70854    0.50251   1.00
H2       0.86046    0.66603    0.47378   1.00
N1       0.91444    0.66792    0.50431   1.00
C6       0.94625    0.68512    0.51968   1.00
C6       0.91648    0.62960    0.51273   1.00
C6       0.96910    0.65743    0.53784   1.00
C6       0.95017    0.62211    0.53340   1.00
H3       0.95269    0.71599    0.51765   1.00
H3       0.89505    0.60809    0.50399   1.00
H3       0.99648    0.66241    0.55269   1.00
H3       0.95986    0.59403    0.54401   1.00
C4       0.68585    0.41491    0.41505   1.00
C4       0.64415    0.41509    0.41495   1.00
C3       0.70792    0.40654    0.44881   1.00
C3       0.62275    0.38345    0.39952   1.00
C3       0.70684    0.42327    0.38057   1.00
C3a      0.62237    0.44687    0.43087   1.00
C2       0.77017    0.41567    0.41365   1.00
C2       0.55983    0.41409    0.41615   1.00
C3       0.74934    0.40695    0.44806   1.00
C3       0.58141    0.38301    0.40015   1.00
C3       0.74820    0.42381    0.37994   1.00
C3       0.58085    0.44580    0.43133   1.00
H1       0.69308    0.39971    0.47585   1.00
H1       0.63815    0.35878    0.38715   1.00
H1       0.76532    0.40046    0.47452   1.00
H1       0.56605    0.35816    0.38812   1.00
H1       0.76321    0.43089    0.35306   1.00
H1       0.56457    0.47007    0.44333   1.00
C5       0.64261    0.48274    0.44686   1.00
H1       0.69099    0.43046    0.35420   1.00
H2       0.62146    0.50251    0.46148   1.00
H2       0.66397    0.47378    0.46954   1.00
N1       0.66208    0.50431    0.41556   1.00
C6       0.64488    0.51968    0.38375   1.00
C6       0.70040    0.51273    0.41352   1.00
C6       0.67257    0.53784    0.36090   1.00
C6       0.70789    0.53340    0.37983   1.00
H3       0.61401    0.51765    0.37731   1.00
H3       0.72191    0.50399    0.43495   1.00
H3       0.66759    0.55269    0.33352   1.00
H3       0.73597    0.54401    0.37014   1.00
C4       1.14415    0.41491    0.41495   1.00
C4       1.18585    0.41509    0.41505   1.00
C3       1.12208    0.40654    0.38119   1.00
C3       1.20725    0.38345    0.43048   1.00
C3       1.12316    0.42327    0.44943   1.00
C3a      1.20763    0.44687    0.39913   1.00
C2       1.05983    0.41567    0.41635   1.00
C2       1.27017    0.41409    0.41385   1.00
C3       1.08066    0.40695    0.38194   1.00
C3       1.24859    0.38301    0.42985   1.00
C3       1.08180    0.42381    0.45006   1.00
C3       1.24915    0.44580    0.39867   1.00
H1       1.13692    0.39971    0.35415   1.00
H1       1.19185    0.35878    0.44285   1.00
H1       1.06468    0.40046    0.35548   1.00
H1       1.26395    0.35816    0.44188   1.00
H1       1.06679    0.43089    0.47694   1.00
H1       1.26543    0.47007    0.38667   1.00
C5       1.18739    0.48274    0.38314   1.00
H1       1.13901    0.43046    0.47580   1.00
H2       1.20854    0.50251    0.36852   1.00
H2       1.16603    0.47378    0.36046   1.00
N1       1.16792    0.50431    0.41444   1.00
C6       1.18512    0.51968    0.44625   1.00
C6       1.12960    0.51273    0.41648   1.00
C6       1.15743    0.53784    0.46910   1.00
C6       1.12211    0.53340    0.45017   1.00
H3       1.21599    0.51765    0.45269   1.00
H3       1.10809    0.50399    0.39505   1.00
H3       1.16241    0.55269    0.49648   1.00
H3       1.09403    0.54401    0.45986   1.00
C4       0.91505    0.18585    0.41491   1.00
C4       0.91495    0.14415    0.41509   1.00
C3       0.94881    0.20792    0.40654   1.00
C3       0.89952    0.12275    0.38345   1.00
C3       0.88057    0.20684    0.42327   1.00
C3a      0.93087    0.12237    0.44687   1.00
C2       0.91365    0.27017    0.41567   1.00
C2       0.91615    0.05983    0.41409   1.00
C3       0.94806    0.24934    0.40695   1.00
C3       0.90015    0.08141    0.38301   1.00
C3       0.87994    0.24820    0.42381   1.00
C3       0.93133    0.08085    0.44580   1.00
H1       0.97585    0.19308    0.39971   1.00
H1       0.88715    0.13815    0.35878   1.00
H1       0.97452    0.26532    0.40046   1.00
H1       0.88812    0.06605    0.35816   1.00
H1       0.85306    0.26321    0.43089   1.00
H1       0.94333    0.06457    0.47007   1.00
C5       0.94686    0.14261    0.48274   1.00
H1       0.85420    0.19099    0.43046   1.00
H2       0.96148    0.12146    0.50251   1.00
H2       0.96954    0.16397    0.47378   1.00
N1       0.91556    0.16208    0.50431   1.00
C6       0.88375    0.14488    0.51968   1.00
C6       0.91352    0.20040    0.51273   1.00
C6       0.86090    0.17257    0.53784   1.00
C6       0.87983    0.20789    0.53340   1.00
H3       0.87731    0.11401    0.51765   1.00
H3       0.93495    0.22191    0.50399   1.00
H3       0.83352    0.16759    0.55269   1.00
H3       0.87014    0.23597    0.54401   1.00
C4       0.91491    0.41505    0.18585   1.00
C4       0.91509    0.41495    0.14415   1.00
C3       0.90654    0.44881    0.20792   1.00
C3       0.88345    0.39952    0.12275   1.00
C3       0.92327    0.38057    0.20684   1.00
C3a      0.94687    0.43087    0.12237   1.00
C2       0.91567    0.41365    0.27017   1.00
C2       0.91409    0.41615    0.05983   1.00
C3       0.90695    0.44806    0.24934   1.00
C3       0.88301    0.40015    0.08141   1.00
C3       0.92381    0.37994    0.24820   1.00
C3       0.94580    0.43133    0.08085   1.00
H1       0.89971    0.47585    0.19308   1.00
H1       0.85878    0.38715    0.13815   1.00
H1       0.90046    0.47452    0.26532   1.00
H1       0.85816    0.38812    0.06605   1.00
H1       0.93089    0.35306    0.26321   1.00
H1       0.97007    0.44333    0.06457   1.00
C5       0.98274    0.44686    0.14261   1.00
H1       0.93046    0.35420    0.19099   1.00
H2       1.00251    0.46148    0.12146   1.00
H2       0.97378    0.46954    0.16397   1.00
N1       1.00431    0.41556    0.16208   1.00
C6       1.01968    0.38375    0.14488   1.00
C6       1.01273    0.41352    0.20040   1.00
C6       1.03784    0.36090    0.17257   1.00
C6       1.03340    0.37983    0.20789   1.00
H3       1.01765    0.37731    0.11401   1.00
H3       1.00399    0.43495    0.22191   1.00
H3       1.05269    0.33352    0.16759   1.00
H3       1.04401    0.37014    0.23597   1.00
