data_IRMOF10_SG202_interpen_Ligand1cp_label_g.

_audit_creation_method             'generated by an auxiliary program of Tobunporous'

_symmetry_space_group_name_H-M     'P 1'
_symmetry_Int_Tables_number        1
_symmetry_cell_setting             triclinic

_cell_length_a                    34.2800
_cell_length_b                    34.2800
_cell_length_c                    34.2800
_cell_angle_alpha                 90.0000
_cell_angle_beta                  90.0000
_cell_angle_gamma                 90.0000

loop_
_atom_site_label
_atom_site_fract_x
_atom_site_fract_y
_atom_site_fract_z
_atom_site_occupancy
O1       0.75000    0.75000    0.75000   1.00
Zn1      0.71720    0.78280    0.78280   1.00
Zn1      0.78280    0.71720    0.78280   1.00
Zn1      0.78280    0.78280    0.71720   1.00
Zn1      0.71720    0.71720    0.71720   1.00
O2       0.72650    0.77350    0.83820   1.00
O2       0.72650    0.83820    0.77350   1.00
O2       0.66180    0.77350    0.77350   1.00
O2       0.77350    0.72650    0.83820   1.00
O2       0.83820    0.72650    0.77350   1.00
O2       0.77350    0.66180    0.77350   1.00
O2       0.77350    0.83820    0.72650   1.00
O2       0.83820    0.77350    0.72650   1.00
O2       0.77350    0.77350    0.66180   1.00
O2       0.66180    0.72650    0.72650   1.00
O2       0.72650    0.66180    0.72650   1.00
O2       0.72650    0.72650    0.66180   1.00
C1       0.75000    0.75000    0.85520   1.00
C1       0.75000    0.85520    0.75000   1.00
C1       0.64480    0.75000    0.75000   1.00
C1       0.85520    0.75000    0.75000   1.00
C1       0.75000    0.64480    0.75000   1.00
C1       0.75000    0.75000    0.64480   1.00
O1       0.25000    0.25000    0.75000   1.00
Zn1      0.21720    0.28280    0.78280   1.00
Zn1      0.28280    0.21720    0.78280   1.00
Zn1      0.28280    0.28280    0.71720   1.00
Zn1      0.21720    0.21720    0.71720   1.00
O2       0.22650    0.27350    0.83820   1.00
O2       0.22650    0.33820    0.77350   1.00
O2       0.16180    0.27350    0.77350   1.00
O2       0.27350    0.22650    0.83820   1.00
O2       0.33820    0.22650    0.77350   1.00
O2       0.27350    0.16180    0.77350   1.00
O2       0.27350    0.33820    0.72650   1.00
O2       0.33820    0.27350    0.72650   1.00
O2       0.27350    0.27350    0.66180   1.00
O2       0.16180    0.22650    0.72650   1.00
O2       0.22650    0.16180    0.72650   1.00
O2       0.22650    0.22650    0.66180   1.00
C1       0.25000    0.25000    0.85520   1.00
C1       0.25000    0.35520    0.75000   1.00
C1       0.14480    0.25000    0.75000   1.00
C1       0.35520    0.25000    0.75000   1.00
C1       0.25000    0.14480    0.75000   1.00
C1       0.25000    0.25000    0.64480   1.00
O1       0.25000    0.75000    0.25000   1.00
Zn1      0.21720    0.78280    0.28280   1.00
Zn1      0.28280    0.71720    0.28280   1.00
Zn1      0.28280    0.78280    0.21720   1.00
Zn1      0.21720    0.71720    0.21720   1.00
O2       0.22650    0.77350    0.33820   1.00
O2       0.22650    0.83820    0.27350   1.00
O2       0.16180    0.77350    0.27350   1.00
O2       0.27350    0.72650    0.33820   1.00
O2       0.33820    0.72650    0.27350   1.00
O2       0.27350    0.66180    0.27350   1.00
O2       0.27350    0.83820    0.22650   1.00
O2       0.33820    0.77350    0.22650   1.00
O2       0.27350    0.77350    0.16180   1.00
O2       0.16180    0.72650    0.22650   1.00
O2       0.22650    0.66180    0.22650   1.00
O2       0.22650    0.72650    0.16180   1.00
C1       0.25000    0.75000    0.35520   1.00
C1       0.25000    0.85520    0.25000   1.00
C1       0.14480    0.75000    0.25000   1.00
C1       0.35520    0.75000    0.25000   1.00
C1       0.25000    0.64480    0.25000   1.00
C1       0.25000    0.75000    0.14480   1.00
O1       0.75000    0.25000    0.25000   1.00
Zn1      0.71720    0.28280    0.28280   1.00
Zn1      0.78280    0.21720    0.28280   1.00
Zn1      0.78280    0.28280    0.21720   1.00
Zn1      0.71720    0.21720    0.21720   1.00
O2       0.72650    0.27350    0.33820   1.00
O2       0.72650    0.33820    0.27350   1.00
O2       0.66180    0.27350    0.27350   1.00
O2       0.77350    0.22650    0.33820   1.00
O2       0.83820    0.22650    0.27350   1.00
O2       0.77350    0.16180    0.27350   1.00
O2       0.77350    0.33820    0.22650   1.00
O2       0.83820    0.27350    0.22650   1.00
O2       0.77350    0.27350    0.16180   1.00
O2       0.66180    0.22650    0.22650   1.00
O2       0.72650    0.16180    0.22650   1.00
O2       0.72650    0.22650    0.16180   1.00
C1       0.75000    0.25000    0.35520   1.00
C1       0.75000    0.35520    0.25000   1.00
C1       0.64480    0.25000    0.25000   1.00
C1       0.85520    0.25000    0.25000   1.00
C1       0.75000    0.14480    0.25000   1.00
C1       0.75000    0.25000    0.14480   1.00
O1       0.25000    0.25000    0.25000   1.00
Zn1      0.28280    0.21720    0.21720   1.00
Zn1      0.21720    0.28280    0.21720   1.00
Zn1      0.21720    0.21720    0.28280   1.00
Zn1      0.28280    0.28280    0.28280   1.00
O2       0.27350    0.22650    0.16180   1.00
O2       0.27350    0.16180    0.22650   1.00
O2       0.33820    0.22650    0.22650   1.00
O2       0.22650    0.27350    0.16180   1.00
O2       0.16180    0.27350    0.22650   1.00
O2       0.22650    0.33820    0.22650   1.00
O2       0.22650    0.16180    0.27350   1.00
O2       0.16180    0.22650    0.27350   1.00
O2       0.22650    0.22650    0.33820   1.00
O2       0.33820    0.27350    0.27350   1.00
O2       0.27350    0.33820    0.27350   1.00
O2       0.27350    0.27350    0.33820   1.00
C1       0.25000    0.25000    0.14480   1.00
C1       0.25000    0.14480    0.25000   1.00
C1       0.35520    0.25000    0.25000   1.00
C1       0.14480    0.25000    0.25000   1.00
C1       0.25000    0.35520    0.25000   1.00
C1       0.25000    0.25000    0.35520   1.00
O1       0.75000    0.75000    0.25000   1.00
Zn1      0.78280    0.71720    0.21720   1.00
Zn1      0.71720    0.78280    0.21720   1.00
Zn1      0.71720    0.71720    0.28280   1.00
Zn1      0.78280    0.78280    0.28280   1.00
O2       0.77350    0.72650    0.16180   1.00
O2       0.77350    0.66180    0.22650   1.00
O2       0.83820    0.72650    0.22650   1.00
O2       0.72650    0.77350    0.16180   1.00
O2       0.66180    0.77350    0.22650   1.00
O2       0.72650    0.83820    0.22650   1.00
O2       0.72650    0.66180    0.27350   1.00
O2       0.66180    0.72650    0.27350   1.00
O2       0.72650    0.72650    0.33820   1.00
O2       0.83820    0.77350    0.27350   1.00
O2       0.77350    0.83820    0.27350   1.00
O2       0.77350    0.77350    0.33820   1.00
C1       0.75000    0.75000    0.14480   1.00
C1       0.75000    0.64480    0.25000   1.00
C1       0.85520    0.75000    0.25000   1.00
C1       0.64480    0.75000    0.25000   1.00
C1       0.75000    0.85520    0.25000   1.00
C1       0.75000    0.75000    0.35520   1.00
O1       0.75000    0.25000    0.75000   1.00
Zn1      0.78280    0.21720    0.71720   1.00
Zn1      0.71720    0.28280    0.71720   1.00
Zn1      0.71720    0.21720    0.78280   1.00
Zn1      0.78280    0.28280    0.78280   1.00
O2       0.77350    0.22650    0.66180   1.00
O2       0.77350    0.16180    0.72650   1.00
O2       0.83820    0.22650    0.72650   1.00
O2       0.72650    0.27350    0.66180   1.00
O2       0.66180    0.27350    0.72650   1.00
O2       0.72650    0.33820    0.72650   1.00
O2       0.72650    0.16180    0.77350   1.00
O2       0.66180    0.22650    0.77350   1.00
O2       0.72650    0.22650    0.83820   1.00
O2       0.83820    0.27350    0.77350   1.00
O2       0.77350    0.33820    0.77350   1.00
O2       0.77350    0.27350    0.83820   1.00
C1       0.75000    0.25000    0.64480   1.00
C1       0.75000    0.14480    0.75000   1.00
C1       0.85520    0.25000    0.75000   1.00
C1       0.64480    0.25000    0.75000   1.00
C1       0.75000    0.35520    0.75000   1.00
C1       0.75000    0.25000    0.85520   1.00
O1       0.25000    0.75000    0.75000   1.00
Zn1      0.28280    0.71720    0.71720   1.00
Zn1      0.21720    0.78280    0.71720   1.00
Zn1      0.21720    0.71720    0.78280   1.00
Zn1      0.28280    0.78280    0.78280   1.00
O2       0.27350    0.72650    0.66180   1.00
O2       0.27350    0.66180    0.72650   1.00
O2       0.33820    0.72650    0.72650   1.00
O2       0.22650    0.77350    0.66180   1.00
O2       0.16180    0.77350    0.72650   1.00
O2       0.22650    0.83820    0.72650   1.00
O2       0.22650    0.66180    0.77350   1.00
O2       0.16180    0.72650    0.77350   1.00
O2       0.22650    0.72650    0.83820   1.00
O2       0.33820    0.77350    0.77350   1.00
O2       0.27350    0.83820    0.77350   1.00
O2       0.27350    0.77350    0.83820   1.00
C1       0.25000    0.75000    0.64480   1.00
C1       0.25000    0.64480    0.75000   1.00
C1       0.35520    0.75000    0.75000   1.00
C1       0.14480    0.75000    0.75000   1.00
C1       0.25000    0.85520    0.75000   1.00
C1       0.25000    0.75000    0.85520   1.00
O1       0.91500    0.91500    0.91500   1.00
Zn1      0.88220    0.94780    0.94780   1.00
Zn1      0.94780    0.88220    0.94780   1.00
Zn1      0.94780    0.94780    0.88220   1.00
Zn1      0.88220    0.88220    0.88220   1.00
O2       0.89150    0.93850    1.00320   1.00
O2       0.89150    1.00320    0.93850   1.00
O2       0.82680    0.93850    0.93850   1.00
O2       0.93850    0.89150    1.00320   1.00
O2       1.00320    0.89150    0.93850   1.00
O2       0.93850    0.82680    0.93850   1.00
O2       0.93850    1.00320    0.89150   1.00
O2       1.00320    0.93850    0.89150   1.00
O2       0.93850    0.93850    0.82680   1.00
O2       0.82680    0.89150    0.89150   1.00
O2       0.89150    0.82680    0.89150   1.00
O2       0.89150    0.89150    0.82680   1.00
C1       0.91500    0.91500    1.02020   1.00
C1       0.91500    1.02020    0.91500   1.00
C1       0.80980    0.91500    0.91500   1.00
C1       1.02020    0.91500    0.91500   1.00
C1       0.91500    0.80980    0.91500   1.00
C1       0.91500    0.91500    0.80980   1.00
O1       0.41500    0.41500    0.91500   1.00
Zn1      0.38220    0.44780    0.94780   1.00
Zn1      0.44780    0.38220    0.94780   1.00
Zn1      0.44780    0.44780    0.88220   1.00
Zn1      0.38220    0.38220    0.88220   1.00
O2       0.39150    0.43850    1.00320   1.00
O2       0.39150    0.50320    0.93850   1.00
O2       0.32680    0.43850    0.93850   1.00
O2       0.43850    0.39150    1.00320   1.00
O2       0.50320    0.39150    0.93850   1.00
O2       0.43850    0.32680    0.93850   1.00
O2       0.43850    0.50320    0.89150   1.00
O2       0.50320    0.43850    0.89150   1.00
O2       0.43850    0.43850    0.82680   1.00
O2       0.32680    0.39150    0.89150   1.00
O2       0.39150    0.32680    0.89150   1.00
O2       0.39150    0.39150    0.82680   1.00
C1       0.41500    0.41500    1.02020   1.00
C1       0.41500    0.52020    0.91500   1.00
C1       0.30980    0.41500    0.91500   1.00
C1       0.52020    0.41500    0.91500   1.00
C1       0.41500    0.30980    0.91500   1.00
C1       0.41500    0.41500    0.80980   1.00
O1       0.41500    0.91500    0.41500   1.00
Zn1      0.38220    0.94780    0.44780   1.00
Zn1      0.44780    0.88220    0.44780   1.00
Zn1      0.44780    0.94780    0.38220   1.00
Zn1      0.38220    0.88220    0.38220   1.00
O2       0.39150    0.93850    0.50320   1.00
O2       0.39150    1.00320    0.43850   1.00
O2       0.32680    0.93850    0.43850   1.00
O2       0.43850    0.89150    0.50320   1.00
O2       0.50320    0.89150    0.43850   1.00
O2       0.43850    0.82680    0.43850   1.00
O2       0.43850    1.00320    0.39150   1.00
O2       0.50320    0.93850    0.39150   1.00
O2       0.43850    0.93850    0.32680   1.00
O2       0.32680    0.89150    0.39150   1.00
O2       0.39150    0.82680    0.39150   1.00
O2       0.39150    0.89150    0.32680   1.00
C1       0.41500    0.91500    0.52020   1.00
C1       0.41500    1.02020    0.41500   1.00
C1       0.30980    0.91500    0.41500   1.00
C1       0.52020    0.91500    0.41500   1.00
C1       0.41500    0.80980    0.41500   1.00
C1       0.41500    0.91500    0.30980   1.00
O1       0.91500    0.41500    0.41500   1.00
Zn1      0.88220    0.44780    0.44780   1.00
Zn1      0.94780    0.38220    0.44780   1.00
Zn1      0.94780    0.44780    0.38220   1.00
Zn1      0.88220    0.38220    0.38220   1.00
O2       0.89150    0.43850    0.50320   1.00
O2       0.89150    0.50320    0.43850   1.00
O2       0.82680    0.43850    0.43850   1.00
O2       0.93850    0.39150    0.50320   1.00
O2       1.00320    0.39150    0.43850   1.00
O2       0.93850    0.32680    0.43850   1.00
O2       0.93850    0.50320    0.39150   1.00
O2       1.00320    0.43850    0.39150   1.00
O2       0.93850    0.43850    0.32680   1.00
O2       0.82680    0.39150    0.39150   1.00
O2       0.89150    0.32680    0.39150   1.00
O2       0.89150    0.39150    0.32680   1.00
C1       0.91500    0.41500    0.52020   1.00
C1       0.91500    0.52020    0.41500   1.00
C1       0.80980    0.41500    0.41500   1.00
C1       1.02020    0.41500    0.41500   1.00
C1       0.91500    0.30980    0.41500   1.00
C1       0.91500    0.41500    0.30980   1.00
O1       0.41500    0.41500    0.41500   1.00
Zn1      0.44780    0.38220    0.38220   1.00
Zn1      0.38220    0.44780    0.38220   1.00
Zn1      0.38220    0.38220    0.44780   1.00
Zn1      0.44780    0.44780    0.44780   1.00
O2       0.43850    0.39150    0.32680   1.00
O2       0.43850    0.32680    0.39150   1.00
O2       0.50320    0.39150    0.39150   1.00
O2       0.39150    0.43850    0.32680   1.00
O2       0.32680    0.43850    0.39150   1.00
O2       0.39150    0.50320    0.39150   1.00
O2       0.39150    0.32680    0.43850   1.00
O2       0.32680    0.39150    0.43850   1.00
O2       0.39150    0.39150    0.50320   1.00
O2       0.50320    0.43850    0.43850   1.00
O2       0.43850    0.50320    0.43850   1.00
O2       0.43850    0.43850    0.50320   1.00
C1       0.41500    0.41500    0.30980   1.00
C1       0.41500    0.30980    0.41500   1.00
C1       0.52020    0.41500    0.41500   1.00
C1       0.30980    0.41500    0.41500   1.00
C1       0.41500    0.52020    0.41500   1.00
C1       0.41500    0.41500    0.52020   1.00
O1       0.91500    0.91500    0.41500   1.00
Zn1      0.94780    0.88220    0.38220   1.00
Zn1      0.88220    0.94780    0.38220   1.00
Zn1      0.88220    0.88220    0.44780   1.00
Zn1      0.94780    0.94780    0.44780   1.00
O2       0.93850    0.89150    0.32680   1.00
O2       0.93850    0.82680    0.39150   1.00
O2       1.00320    0.89150    0.39150   1.00
O2       0.89150    0.93850    0.32680   1.00
O2       0.82680    0.93850    0.39150   1.00
O2       0.89150    1.00320    0.39150   1.00
O2       0.89150    0.82680    0.43850   1.00
O2       0.82680    0.89150    0.43850   1.00
O2       0.89150    0.89150    0.50320   1.00
O2       1.00320    0.93850    0.43850   1.00
O2       0.93850    1.00320    0.43850   1.00
O2       0.93850    0.93850    0.50320   1.00
C1       0.91500    0.91500    0.30980   1.00
C1       0.91500    0.80980    0.41500   1.00
C1       1.02020    0.91500    0.41500   1.00
C1       0.80980    0.91500    0.41500   1.00
C1       0.91500    1.02020    0.41500   1.00
C1       0.91500    0.91500    0.52020   1.00
O1       0.91500    0.41500    0.91500   1.00
Zn1      0.94780    0.38220    0.88220   1.00
Zn1      0.88220    0.44780    0.88220   1.00
Zn1      0.88220    0.38220    0.94780   1.00
Zn1      0.94780    0.44780    0.94780   1.00
O2       0.93850    0.39150    0.82680   1.00
O2       0.93850    0.32680    0.89150   1.00
O2       1.00320    0.39150    0.89150   1.00
O2       0.89150    0.43850    0.82680   1.00
O2       0.82680    0.43850    0.89150   1.00
O2       0.89150    0.50320    0.89150   1.00
O2       0.89150    0.32680    0.93850   1.00
O2       0.82680    0.39150    0.93850   1.00
O2       0.89150    0.39150    1.00320   1.00
O2       1.00320    0.43850    0.93850   1.00
O2       0.93850    0.50320    0.93850   1.00
O2       0.93850    0.43850    1.00320   1.00
C1       0.91500    0.41500    0.80980   1.00
C1       0.91500    0.30980    0.91500   1.00
C1       1.02020    0.41500    0.91500   1.00
C1       0.80980    0.41500    0.91500   1.00
C1       0.91500    0.52020    0.91500   1.00
C1       0.91500    0.41500    1.02020   1.00
O1       0.41500    0.91500    0.91500   1.00
Zn1      0.44780    0.88220    0.88220   1.00
Zn1      0.38220    0.94780    0.88220   1.00
Zn1      0.38220    0.88220    0.94780   1.00
Zn1      0.44780    0.94780    0.94780   1.00
O2       0.43850    0.89150    0.82680   1.00
O2       0.43850    0.82680    0.89150   1.00
O2       0.50320    0.89150    0.89150   1.00
O2       0.39150    0.93850    0.82680   1.00
O2       0.32680    0.93850    0.89150   1.00
O2       0.39150    1.00320    0.89150   1.00
O2       0.39150    0.82680    0.93850   1.00
O2       0.32680    0.89150    0.93850   1.00
O2       0.39150    0.89150    1.00320   1.00
O2       0.50320    0.93850    0.93850   1.00
O2       0.43850    1.00320    0.93850   1.00
O2       0.43850    0.93850    1.00320   1.00
C1       0.41500    0.91500    0.80980   1.00
C1       0.41500    0.80980    0.91500   1.00
C1       0.52020    0.91500    0.91500   1.00
C1       0.30980    0.91500    0.91500   1.00
C1       0.41500    1.02020    0.91500   1.00
C1       0.41500    0.91500    1.02020   1.00
C5       0.85061    0.82715    1.13218   1.00
H2       0.82645    0.84240    1.14745   1.00
H2       0.86252    0.84850    1.11090   1.00
C5       0.88216    0.81544    1.16194   1.00
C5       0.90903    0.85022    1.17123   1.00
H2       0.90008    0.79105    1.15015   1.00
O3       0.80206    0.70199    0.98000   1.00
C4       0.74959    0.75008    1.02100   1.00
C3c      0.77276    0.77621    1.04243   1.00
H1       0.79102    0.79697    1.02725   1.00
C3d      0.72558    0.72364    1.04135   1.00
C3       0.77323    0.77567    1.08354   1.00
O2       0.79287    0.80513    1.10248   1.00
C3       0.72654    0.72252    1.08227   1.00
H1       0.70867    0.70081    1.09657   1.00
C2       0.75012    0.74845    1.10439   1.00
C5       0.78991    0.66264    0.97879   1.00
H2       0.78824    0.65121    0.94838   1.00
H2       0.76068    0.65896    0.99266   1.00
C5       0.81982    0.63860    1.00129   1.00
H2       0.82230    0.65071    1.03137   1.00
H2       0.84881    0.64219    0.98698   1.00
C5       0.80802    0.59527    1.00262   1.00
H2       0.80523    0.58306    0.97268   1.00
H2       0.77973    0.59151    1.01811   1.00
C5       0.83927    0.57149    1.02445   1.00
C5       0.66776    0.71064    1.01105   1.00
C5       0.83150    0.79319    1.11070   1.00
H2       0.67088    0.73587    0.99088   1.00
H2       0.65074    0.72016    1.03712   1.00
H2       0.84744    0.78695    1.08300   1.00
H2       0.83261    0.76614    1.12895   1.00
H2       0.86886    0.80629    1.19030   1.00
H2       0.61871    0.71235    0.94247   1.00
H2       0.59088    0.71201    0.98763   1.00
C2       0.75023    0.74733    0.89605   1.00
C3       0.72511    0.77320    0.91597   1.00
O2       0.69421    0.79041    0.89674   1.00
C3       0.77617    0.72412    0.91826   1.00
H1       0.79647    0.70477    0.90385   1.00
C3a      0.72570    0.77456    0.95713   1.00
H1       0.70475    0.79287    0.97202   1.00
C3b      0.77582    0.72464    0.95922   1.00
C4       0.75041    0.74992    0.97900   1.00
O3       0.70449    0.69537    1.02167   1.00
C5       0.70331    0.82941    0.88720   1.00
H2       0.70986    0.84690    0.91391   1.00
C5       0.66769    0.84648    0.86674   1.00
H2       0.72897    0.83084    0.86726   1.00
H2       0.64581    0.85470    0.88932   1.00
H2       0.65429    0.82271    0.84907   1.00
C5       0.67762    0.88180    0.84082   1.00
H2       0.69371    0.90391    0.85824   1.00
C5       0.64023    0.90063    0.82453   1.00
H2       0.69562    0.87298    0.81507   1.00
C5       0.64537    0.67836    0.99017   1.00
H2       0.63641    0.65615    1.01215   1.00
H2       0.66568    0.66359    0.96952   1.00
C5       0.60967    0.69424    0.96800   1.00
C5       0.58501    0.66016    0.95225   1.00
H2       0.89391    0.87045    1.19286   1.00
H2       0.93742    0.83906    1.18447   1.00
H2       0.91567    0.86689    1.14323   1.00
H2       0.82747    0.54110    1.03105   1.00
H2       0.86649    0.56893    1.00551   1.00
H2       0.84698    0.58682    1.05293   1.00
H2       0.64605    0.91212    0.79387   1.00
H2       0.61595    0.87793    0.82344   1.00
H2       0.63100    0.92579    0.84423   1.00
H2       0.60163    0.63164    0.95634   1.00
H2       0.55623    0.65870    0.96884   1.00
H2       0.57893    0.66490    0.91990   1.00
C5       0.82715    1.13218    0.85061   1.00
H2       0.84240    1.14745    0.82645   1.00
H2       0.84850    1.11090    0.86252   1.00
C5       0.81544    1.16194    0.88216   1.00
C5       0.85022    1.17123    0.90903   1.00
H2       0.79105    1.15015    0.90008   1.00
O3       0.70199    0.98000    0.80206   1.00
C4       0.75008    1.02100    0.74959   1.00
C3c      0.77621    1.04243    0.77276   1.00
H1       0.79697    1.02725    0.79102   1.00
C3d      0.72364    1.04135    0.72558   1.00
C3       0.77567    1.08354    0.77323   1.00
O2       0.80513    1.10248    0.79287   1.00
C3       0.72252    1.08227    0.72654   1.00
H1       0.70081    1.09657    0.70867   1.00
C2       0.74845    1.10439    0.75012   1.00
C5       0.66264    0.97879    0.78991   1.00
H2       0.65121    0.94838    0.78824   1.00
H2       0.65896    0.99266    0.76068   1.00
C5       0.63860    1.00129    0.81982   1.00
H2       0.65071    1.03137    0.82230   1.00
H2       0.64219    0.98698    0.84881   1.00
C5       0.59527    1.00262    0.80802   1.00
H2       0.58306    0.97268    0.80523   1.00
H2       0.59151    1.01811    0.77973   1.00
C5       0.57149    1.02445    0.83927   1.00
C5       0.71064    1.01105    0.66776   1.00
C5       0.79319    1.11070    0.83150   1.00
H2       0.73587    0.99088    0.67088   1.00
H2       0.72016    1.03712    0.65074   1.00
H2       0.78695    1.08300    0.84744   1.00
H2       0.76614    1.12895    0.83261   1.00
H2       0.80629    1.19030    0.86886   1.00
H2       0.71235    0.94247    0.61871   1.00
H2       0.71201    0.98763    0.59088   1.00
C2       0.74733    0.89605    0.75023   1.00
C3       0.77320    0.91597    0.72511   1.00
O2       0.79041    0.89674    0.69421   1.00
C3       0.72412    0.91826    0.77617   1.00
H1       0.70477    0.90385    0.79647   1.00
C3a      0.77456    0.95713    0.72570   1.00
H1       0.79287    0.97202    0.70475   1.00
C3b      0.72464    0.95922    0.77582   1.00
C4       0.74992    0.97900    0.75041   1.00
O3       0.69537    1.02167    0.70449   1.00
C5       0.82941    0.88720    0.70331   1.00
H2       0.84690    0.91391    0.70986   1.00
C5       0.84648    0.86674    0.66769   1.00
H2       0.83084    0.86726    0.72897   1.00
H2       0.85470    0.88932    0.64581   1.00
H2       0.82271    0.84907    0.65429   1.00
C5       0.88180    0.84082    0.67762   1.00
H2       0.90391    0.85824    0.69371   1.00
C5       0.90063    0.82453    0.64023   1.00
H2       0.87298    0.81507    0.69562   1.00
C5       0.67836    0.99017    0.64537   1.00
H2       0.65615    1.01215    0.63641   1.00
H2       0.66359    0.96952    0.66568   1.00
C5       0.69424    0.96800    0.60967   1.00
C5       0.66016    0.95225    0.58501   1.00
H2       0.87045    1.19286    0.89391   1.00
H2       0.83906    1.18447    0.93742   1.00
H2       0.86689    1.14323    0.91567   1.00
H2       0.54110    1.03105    0.82747   1.00
H2       0.56893    1.00551    0.86649   1.00
H2       0.58682    1.05293    0.84698   1.00
H2       0.91212    0.79387    0.64605   1.00
H2       0.87793    0.82344    0.61595   1.00
H2       0.92579    0.84423    0.63100   1.00
H2       0.63164    0.95634    0.60163   1.00
H2       0.65870    0.96884    0.55623   1.00
H2       0.66490    0.91990    0.57893   1.00
C5       0.36782    0.85061    0.67285   1.00
H2       0.35255    0.82645    0.65760   1.00
H2       0.38910    0.86252    0.65150   1.00
C5       0.33806    0.88216    0.68456   1.00
C5       0.32877    0.90903    0.64978   1.00
H2       0.34985    0.90008    0.70895   1.00
O3       0.52000    0.80206    0.79801   1.00
C4       0.47900    0.74959    0.74992   1.00
C3c      0.45757    0.77276    0.72379   1.00
H1       0.47275    0.79102    0.70303   1.00
C3d      0.45865    0.72558    0.77636   1.00
C3       0.41646    0.77323    0.72433   1.00
O2       0.39752    0.79287    0.69487   1.00
C3       0.41773    0.72654    0.77748   1.00
H1       0.40343    0.70867    0.79919   1.00
C2       0.39561    0.75012    0.75155   1.00
C5       0.52121    0.78991    0.83736   1.00
H2       0.55162    0.78824    0.84879   1.00
H2       0.50734    0.76068    0.84104   1.00
C5       0.49871    0.81982    0.86140   1.00
H2       0.46863    0.82230    0.84929   1.00
H2       0.51302    0.84881    0.85781   1.00
C5       0.49738    0.80802    0.90473   1.00
H2       0.52732    0.80523    0.91694   1.00
H2       0.48189    0.77973    0.90849   1.00
C5       0.47555    0.83927    0.92851   1.00
C5       0.48895    0.66776    0.78936   1.00
C5       0.38930    0.83150    0.70681   1.00
H2       0.50912    0.67088    0.76413   1.00
H2       0.46288    0.65074    0.77984   1.00
H2       0.41700    0.84744    0.71305   1.00
H2       0.37105    0.83261    0.73386   1.00
H2       0.30970    0.86886    0.69371   1.00
H2       0.55753    0.61871    0.78765   1.00
H2       0.51237    0.59088    0.78799   1.00
C2       0.60395    0.75023    0.75267   1.00
C3       0.58403    0.72511    0.72680   1.00
O2       0.60326    0.69421    0.70959   1.00
C3       0.58174    0.77617    0.77588   1.00
H1       0.59615    0.79647    0.79523   1.00
C3a      0.54287    0.72570    0.72544   1.00
H1       0.52798    0.70475    0.70713   1.00
C3b      0.54078    0.77582    0.77536   1.00
C4       0.52100    0.75041    0.75008   1.00
O3       0.47833    0.70449    0.80463   1.00
C5       0.61280    0.70331    0.67059   1.00
H2       0.58609    0.70986    0.65310   1.00
C5       0.63326    0.66769    0.65352   1.00
H2       0.63274    0.72897    0.66916   1.00
H2       0.61068    0.64581    0.64530   1.00
H2       0.65093    0.65429    0.67729   1.00
C5       0.65918    0.67762    0.61820   1.00
H2       0.64176    0.69371    0.59609   1.00
C5       0.67547    0.64023    0.59937   1.00
H2       0.68493    0.69562    0.62702   1.00
C5       0.50983    0.64537    0.82164   1.00
H2       0.48785    0.63641    0.84385   1.00
H2       0.53048    0.66568    0.83641   1.00
C5       0.53200    0.60967    0.80576   1.00
C5       0.54775    0.58501    0.83984   1.00
H2       0.30714    0.89391    0.62955   1.00
H2       0.31553    0.93742    0.66094   1.00
H2       0.35677    0.91567    0.63311   1.00
H2       0.46895    0.82747    0.95890   1.00
H2       0.49449    0.86649    0.93107   1.00
H2       0.44707    0.84698    0.91318   1.00
H2       0.70613    0.64605    0.58788   1.00
H2       0.67656    0.61595    0.62207   1.00
H2       0.65577    0.63100    0.57421   1.00
H2       0.54366    0.60163    0.86836   1.00
H2       0.53116    0.55623    0.84130   1.00
H2       0.58010    0.57893    0.83510   1.00
C5       1.13218    0.85061    0.82715   1.00
H2       1.14745    0.82645    0.84240   1.00
H2       1.11090    0.86252    0.84850   1.00
C5       1.16194    0.88216    0.81544   1.00
C5       1.17123    0.90903    0.85022   1.00
H2       1.15015    0.90008    0.79105   1.00
O3       0.98000    0.80206    0.70199   1.00
C4       1.02100    0.74959    0.75008   1.00
C3c      1.04243    0.77276    0.77621   1.00
H1       1.02725    0.79102    0.79697   1.00
C3d      1.04135    0.72558    0.72364   1.00
C3       1.08354    0.77323    0.77567   1.00
O2       1.10248    0.79287    0.80513   1.00
C3       1.08227    0.72654    0.72252   1.00
H1       1.09657    0.70867    0.70081   1.00
C2       1.10439    0.75012    0.74845   1.00
C5       0.97879    0.78991    0.66264   1.00
H2       0.94838    0.78824    0.65121   1.00
H2       0.99266    0.76068    0.65896   1.00
C5       1.00129    0.81982    0.63860   1.00
H2       1.03137    0.82230    0.65071   1.00
H2       0.98698    0.84881    0.64219   1.00
C5       1.00262    0.80802    0.59527   1.00
H2       0.97268    0.80523    0.58306   1.00
H2       1.01811    0.77973    0.59151   1.00
C5       1.02445    0.83927    0.57149   1.00
C5       1.01105    0.66776    0.71064   1.00
C5       1.11070    0.83150    0.79319   1.00
H2       0.99088    0.67088    0.73587   1.00
H2       1.03712    0.65074    0.72016   1.00
H2       1.08300    0.84744    0.78695   1.00
H2       1.12895    0.83261    0.76614   1.00
H2       1.19030    0.86886    0.80629   1.00
H2       0.94247    0.61871    0.71235   1.00
H2       0.98763    0.59088    0.71201   1.00
C2       0.89605    0.75023    0.74733   1.00
C3       0.91597    0.72511    0.77320   1.00
O2       0.89674    0.69421    0.79041   1.00
C3       0.91826    0.77617    0.72412   1.00
H1       0.90385    0.79647    0.70477   1.00
C3a      0.95713    0.72570    0.77456   1.00
H1       0.97202    0.70475    0.79287   1.00
C3b      0.95922    0.77582    0.72464   1.00
C4       0.97900    0.75041    0.74992   1.00
O3       1.02167    0.70449    0.69537   1.00
C5       0.88720    0.70331    0.82941   1.00
H2       0.91391    0.70986    0.84690   1.00
C5       0.86674    0.66769    0.84648   1.00
H2       0.86726    0.72897    0.83084   1.00
H2       0.88932    0.64581    0.85470   1.00
H2       0.84907    0.65429    0.82271   1.00
C5       0.84082    0.67762    0.88180   1.00
H2       0.85824    0.69371    0.90391   1.00
C5       0.82453    0.64023    0.90063   1.00
H2       0.81507    0.69562    0.87298   1.00
C5       0.99017    0.64537    0.67836   1.00
H2       1.01215    0.63641    0.65615   1.00
H2       0.96952    0.66568    0.66359   1.00
C5       0.96800    0.60967    0.69424   1.00
C5       0.95225    0.58501    0.66016   1.00
H2       1.19286    0.89391    0.87045   1.00
H2       1.18447    0.93742    0.83906   1.00
H2       1.14323    0.91567    0.86689   1.00
H2       1.03105    0.82747    0.54110   1.00
H2       1.00551    0.86649    0.56893   1.00
H2       1.05293    0.84698    0.58682   1.00
H2       0.79387    0.64605    0.91212   1.00
H2       0.82344    0.61595    0.87793   1.00
H2       0.84423    0.63100    0.92579   1.00
H2       0.95634    0.60163    0.63164   1.00
H2       0.96884    0.55623    0.65870   1.00
H2       0.91990    0.57893    0.66490   1.00
C5       0.67285    0.36782    0.85061   1.00
H2       0.65760    0.35255    0.82645   1.00
H2       0.65150    0.38910    0.86252   1.00
C5       0.68456    0.33806    0.88216   1.00
C5       0.64978    0.32877    0.90903   1.00
H2       0.70895    0.34985    0.90008   1.00
O3       0.79801    0.52000    0.80206   1.00
C4       0.74992    0.47900    0.74959   1.00
C3c      0.72379    0.45757    0.77276   1.00
H1       0.70303    0.47275    0.79102   1.00
C3d      0.77636    0.45865    0.72558   1.00
C3       0.72433    0.41646    0.77323   1.00
O2       0.69487    0.39752    0.79287   1.00
C3       0.77748    0.41773    0.72654   1.00
H1       0.79919    0.40343    0.70867   1.00
C2       0.75155    0.39561    0.75012   1.00
C5       0.83736    0.52121    0.78991   1.00
H2       0.84879    0.55162    0.78824   1.00
H2       0.84104    0.50734    0.76068   1.00
C5       0.86140    0.49871    0.81982   1.00
H2       0.84929    0.46863    0.82230   1.00
H2       0.85781    0.51302    0.84881   1.00
C5       0.90473    0.49738    0.80802   1.00
H2       0.91694    0.52732    0.80523   1.00
H2       0.90849    0.48189    0.77973   1.00
C5       0.92851    0.47555    0.83927   1.00
C5       0.78936    0.48895    0.66776   1.00
C5       0.70681    0.38930    0.83150   1.00
H2       0.76413    0.50912    0.67088   1.00
H2       0.77984    0.46288    0.65074   1.00
H2       0.71305    0.41700    0.84744   1.00
H2       0.73386    0.37105    0.83261   1.00
H2       0.69371    0.30970    0.86886   1.00
H2       0.78765    0.55753    0.61871   1.00
H2       0.78799    0.51237    0.59088   1.00
C2       0.75267    0.60395    0.75023   1.00
C3       0.72680    0.58403    0.72511   1.00
O2       0.70959    0.60326    0.69421   1.00
C3       0.77588    0.58174    0.77617   1.00
H1       0.79523    0.59615    0.79647   1.00
C3a      0.72544    0.54287    0.72570   1.00
H1       0.70713    0.52798    0.70475   1.00
C3b      0.77536    0.54078    0.77582   1.00
C4       0.75008    0.52100    0.75041   1.00
O3       0.80463    0.47833    0.70449   1.00
C5       0.67059    0.61280    0.70331   1.00
H2       0.65310    0.58609    0.70986   1.00
C5       0.65352    0.63326    0.66769   1.00
H2       0.66916    0.63274    0.72897   1.00
H2       0.64530    0.61068    0.64581   1.00
H2       0.67729    0.65093    0.65429   1.00
C5       0.61820    0.65918    0.67762   1.00
H2       0.59609    0.64176    0.69371   1.00
C5       0.59937    0.67547    0.64023   1.00
H2       0.62702    0.68493    0.69562   1.00
C5       0.82164    0.50983    0.64537   1.00
H2       0.84385    0.48785    0.63641   1.00
H2       0.83641    0.53048    0.66568   1.00
C5       0.80576    0.53200    0.60967   1.00
C5       0.83984    0.54775    0.58501   1.00
H2       0.62955    0.30714    0.89391   1.00
H2       0.66094    0.31553    0.93742   1.00
H2       0.63311    0.35677    0.91567   1.00
H2       0.95890    0.46895    0.82747   1.00
H2       0.93107    0.49449    0.86649   1.00
H2       0.91318    0.44707    0.84698   1.00
H2       0.58788    0.70613    0.64605   1.00
H2       0.62207    0.67656    0.61595   1.00
H2       0.57421    0.65577    0.63100   1.00
H2       0.86836    0.54366    0.60163   1.00
H2       0.84130    0.53116    0.55623   1.00
H2       0.83510    0.58010    0.57893   1.00
C5       0.85061    0.67285    0.36782   1.00
H2       0.82645    0.65760    0.35255   1.00
H2       0.86252    0.65150    0.38910   1.00
C5       0.88216    0.68456    0.33806   1.00
C5       0.90903    0.64978    0.32877   1.00
H2       0.90008    0.70895    0.34985   1.00
O3       0.80206    0.79801    0.52000   1.00
C4       0.74959    0.74992    0.47900   1.00
C3c      0.77276    0.72379    0.45757   1.00
H1       0.79102    0.70303    0.47275   1.00
C3d      0.72558    0.77636    0.45865   1.00
C3       0.77323    0.72433    0.41646   1.00
O2       0.79287    0.69487    0.39752   1.00
C3       0.72654    0.77748    0.41773   1.00
H1       0.70867    0.79919    0.40343   1.00
C2       0.75012    0.75155    0.39561   1.00
C5       0.78991    0.83736    0.52121   1.00
H2       0.78824    0.84879    0.55162   1.00
H2       0.76068    0.84104    0.50734   1.00
C5       0.81982    0.86140    0.49871   1.00
H2       0.82230    0.84929    0.46863   1.00
H2       0.84881    0.85781    0.51302   1.00
C5       0.80802    0.90473    0.49738   1.00
H2       0.80523    0.91694    0.52732   1.00
H2       0.77973    0.90849    0.48189   1.00
C5       0.83927    0.92851    0.47555   1.00
C5       0.66776    0.78936    0.48895   1.00
C5       0.83150    0.70681    0.38930   1.00
H2       0.67088    0.76413    0.50912   1.00
H2       0.65074    0.77984    0.46288   1.00
H2       0.84744    0.71305    0.41700   1.00
H2       0.83261    0.73386    0.37105   1.00
H2       0.86886    0.69371    0.30970   1.00
H2       0.61871    0.78765    0.55753   1.00
H2       0.59088    0.78799    0.51237   1.00
C2       0.75023    0.75267    0.60395   1.00
C3       0.72511    0.72680    0.58403   1.00
O2       0.69421    0.70959    0.60326   1.00
C3       0.77617    0.77588    0.58174   1.00
H1       0.79647    0.79523    0.59615   1.00
C3a      0.72570    0.72544    0.54287   1.00
H1       0.70475    0.70713    0.52798   1.00
C3b      0.77582    0.77536    0.54078   1.00
C4       0.75041    0.75008    0.52100   1.00
O3       0.70449    0.80463    0.47833   1.00
C5       0.70331    0.67059    0.61280   1.00
H2       0.70986    0.65310    0.58609   1.00
C5       0.66769    0.65352    0.63326   1.00
H2       0.72897    0.66916    0.63274   1.00
H2       0.64581    0.64530    0.61068   1.00
H2       0.65429    0.67729    0.65093   1.00
C5       0.67762    0.61820    0.65918   1.00
H2       0.69371    0.59609    0.64176   1.00
C5       0.64023    0.59937    0.67547   1.00
H2       0.69562    0.62702    0.68493   1.00
C5       0.64537    0.82164    0.50983   1.00
H2       0.63641    0.84385    0.48785   1.00
H2       0.66568    0.83641    0.53048   1.00
C5       0.60967    0.80576    0.53200   1.00
C5       0.58501    0.83984    0.54775   1.00
H2       0.89391    0.62955    0.30714   1.00
H2       0.93742    0.66094    0.31553   1.00
H2       0.91567    0.63311    0.35677   1.00
H2       0.82747    0.95890    0.46895   1.00
H2       0.86649    0.93107    0.49449   1.00
H2       0.84698    0.91318    0.44707   1.00
H2       0.64605    0.58788    0.70613   1.00
H2       0.61595    0.62207    0.67656   1.00
H2       0.63100    0.57421    0.65577   1.00
H2       0.60163    0.86836    0.54366   1.00
H2       0.55623    0.84130    0.53116   1.00
H2       0.57893    0.83510    0.58010   1.00
C5       0.35061    0.32715    1.13218   1.00
H2       0.32645    0.34240    1.14745   1.00
H2       0.36252    0.34850    1.11090   1.00
C5       0.38216    0.31544    1.16194   1.00
C5       0.40903    0.35022    1.17123   1.00
H2       0.40008    0.29105    1.15015   1.00
O3       0.30206    0.20199    0.98000   1.00
C4       0.24959    0.25008    1.02100   1.00
C3c      0.27276    0.27621    1.04243   1.00
H1       0.29102    0.29697    1.02725   1.00
C3d      0.22558    0.22364    1.04135   1.00
C3       0.27323    0.27567    1.08354   1.00
O2       0.29287    0.30513    1.10248   1.00
C3       0.22654    0.22252    1.08227   1.00
H1       0.20867    0.20081    1.09657   1.00
C2       0.25012    0.24845    1.10439   1.00
C5       0.28991    0.16264    0.97879   1.00
H2       0.28824    0.15121    0.94838   1.00
H2       0.26068    0.15896    0.99266   1.00
C5       0.31982    0.13860    1.00129   1.00
H2       0.32230    0.15071    1.03137   1.00
H2       0.34881    0.14219    0.98698   1.00
C5       0.30802    0.09527    1.00262   1.00
H2       0.30523    0.08306    0.97268   1.00
H2       0.27973    0.09151    1.01811   1.00
C5       0.33927    0.07149    1.02445   1.00
C5       0.16776    0.21064    1.01105   1.00
C5       0.33150    0.29319    1.11070   1.00
H2       0.17088    0.23587    0.99088   1.00
H2       0.15074    0.22016    1.03712   1.00
H2       0.34744    0.28695    1.08300   1.00
H2       0.33261    0.26614    1.12895   1.00
H2       0.36886    0.30629    1.19030   1.00
H2       0.11871    0.21235    0.94247   1.00
H2       0.09088    0.21201    0.98763   1.00
C2       0.25023    0.24733    0.89605   1.00
C3       0.22511    0.27320    0.91597   1.00
O2       0.19421    0.29041    0.89674   1.00
C3       0.27617    0.22412    0.91826   1.00
H1       0.29647    0.20477    0.90385   1.00
C3a      0.22570    0.27456    0.95713   1.00
H1       0.20475    0.29287    0.97202   1.00
C3b      0.27582    0.22464    0.95922   1.00
C4       0.25041    0.24992    0.97900   1.00
O3       0.20449    0.19537    1.02167   1.00
C5       0.20331    0.32941    0.88720   1.00
H2       0.20986    0.34690    0.91391   1.00
C5       0.16769    0.34648    0.86674   1.00
H2       0.22897    0.33084    0.86726   1.00
H2       0.14581    0.35470    0.88932   1.00
H2       0.15429    0.32271    0.84907   1.00
C5       0.17762    0.38180    0.84082   1.00
H2       0.19371    0.40391    0.85824   1.00
C5       0.14023    0.40063    0.82453   1.00
H2       0.19562    0.37298    0.81507   1.00
C5       0.14537    0.17836    0.99017   1.00
H2       0.13641    0.15615    1.01215   1.00
H2       0.16568    0.16359    0.96952   1.00
C5       0.10967    0.19424    0.96800   1.00
C5       0.08501    0.16016    0.95225   1.00
H2       0.39391    0.37045    1.19286   1.00
H2       0.43742    0.33906    1.18447   1.00
H2       0.41567    0.36689    1.14323   1.00
H2       0.32747    0.04110    1.03105   1.00
H2       0.36649    0.06893    1.00551   1.00
H2       0.34698    0.08682    1.05293   1.00
H2       0.14605    0.41212    0.79387   1.00
H2       0.11595    0.37793    0.82344   1.00
H2       0.13100    0.42579    0.84423   1.00
H2       0.10163    0.13164    0.95634   1.00
H2       0.05623    0.15870    0.96884   1.00
H2       0.07893    0.16490    0.91990   1.00
C5       0.32715    0.63218    0.85061   1.00
H2       0.34240    0.64745    0.82645   1.00
H2       0.34850    0.61090    0.86252   1.00
C5       0.31544    0.66194    0.88216   1.00
C5       0.35022    0.67123    0.90903   1.00
H2       0.29105    0.65015    0.90008   1.00
O3       0.20199    0.48000    0.80206   1.00
C4       0.25008    0.52100    0.74959   1.00
C3c      0.27621    0.54243    0.77276   1.00
H1       0.29697    0.52725    0.79102   1.00
C3d      0.22364    0.54135    0.72558   1.00
C3       0.27567    0.58354    0.77323   1.00
O2       0.30513    0.60248    0.79287   1.00
C3       0.22252    0.58227    0.72654   1.00
H1       0.20081    0.59657    0.70867   1.00
C2       0.24845    0.60439    0.75012   1.00
C5       0.16264    0.47879    0.78991   1.00
H2       0.15121    0.44838    0.78824   1.00
H2       0.15896    0.49266    0.76068   1.00
C5       0.13860    0.50129    0.81982   1.00
H2       0.15071    0.53137    0.82230   1.00
H2       0.14219    0.48698    0.84881   1.00
C5       0.09527    0.50262    0.80802   1.00
H2       0.08306    0.47268    0.80523   1.00
H2       0.09151    0.51811    0.77973   1.00
C5       0.07149    0.52445    0.83927   1.00
C5       0.21064    0.51105    0.66776   1.00
C5       0.29319    0.61070    0.83150   1.00
H2       0.23587    0.49088    0.67088   1.00
H2       0.22016    0.53712    0.65074   1.00
H2       0.28695    0.58300    0.84744   1.00
H2       0.26614    0.62895    0.83261   1.00
H2       0.30629    0.69030    0.86886   1.00
H2       0.21235    0.44247    0.61871   1.00
H2       0.21201    0.48763    0.59088   1.00
C2       0.24733    0.39605    0.75023   1.00
C3       0.27320    0.41597    0.72511   1.00
O2       0.29041    0.39674    0.69421   1.00
C3       0.22412    0.41826    0.77617   1.00
H1       0.20477    0.40385    0.79647   1.00
C3a      0.27456    0.45713    0.72570   1.00
H1       0.29287    0.47202    0.70475   1.00
C3b      0.22464    0.45922    0.77582   1.00
C4       0.24992    0.47900    0.75041   1.00
O3       0.19537    0.52167    0.70449   1.00
C5       0.32941    0.38720    0.70331   1.00
H2       0.34690    0.41391    0.70986   1.00
C5       0.34648    0.36674    0.66769   1.00
H2       0.33084    0.36726    0.72897   1.00
H2       0.35470    0.38932    0.64581   1.00
H2       0.32271    0.34907    0.65429   1.00
C5       0.38180    0.34082    0.67762   1.00
H2       0.40391    0.35824    0.69371   1.00
C5       0.40063    0.32453    0.64023   1.00
H2       0.37298    0.31507    0.69562   1.00
C5       0.17836    0.49017    0.64537   1.00
H2       0.15615    0.51215    0.63641   1.00
H2       0.16359    0.46952    0.66568   1.00
C5       0.19424    0.46800    0.60967   1.00
C5       0.16016    0.45225    0.58501   1.00
H2       0.37045    0.69286    0.89391   1.00
H2       0.33906    0.68447    0.93742   1.00
H2       0.36689    0.64323    0.91567   1.00
H2       0.04110    0.53105    0.82747   1.00
H2       0.06893    0.50551    0.86649   1.00
H2       0.08682    0.55293    0.84698   1.00
H2       0.41212    0.29387    0.64605   1.00
H2       0.37793    0.32344    0.61595   1.00
H2       0.42579    0.34423    0.63100   1.00
H2       0.13164    0.45634    0.60163   1.00
H2       0.15870    0.46884    0.55623   1.00
H2       0.16490    0.41990    0.57893   1.00
C5       -0.13218   0.35061    0.67285   1.00
H2       -0.14745   0.32645    0.65760   1.00
H2       -0.11090   0.36252    0.65150   1.00
C5       -0.16194   0.38216    0.68456   1.00
C5       -0.17123   0.40903    0.64978   1.00
H2       -0.15015   0.40008    0.70895   1.00
O3       0.02000    0.30206    0.79801   1.00
C4       -0.02100   0.24959    0.74992   1.00
C3c      -0.04243   0.27276    0.72379   1.00
H1       -0.02725   0.29102    0.70303   1.00
C3d      -0.04135   0.22558    0.77636   1.00
C3       -0.08354   0.27323    0.72433   1.00
O2       -0.10248   0.29287    0.69487   1.00
C3       -0.08227   0.22654    0.77748   1.00
H1       -0.09657   0.20867    0.79919   1.00
C2       -0.10439   0.25012    0.75155   1.00
C5       0.02121    0.28991    0.83736   1.00
H2       0.05162    0.28824    0.84879   1.00
H2       0.00734    0.26068    0.84104   1.00
C5       -0.00129   0.31982    0.86140   1.00
H2       -0.03137   0.32230    0.84929   1.00
H2       0.01302    0.34881    0.85781   1.00
C5       -0.00262   0.30802    0.90473   1.00
H2       0.02732    0.30523    0.91694   1.00
H2       -0.01811   0.27973    0.90849   1.00
C5       -0.02445   0.33927    0.92851   1.00
C5       -0.01105   0.16776    0.78936   1.00
C5       -0.11070   0.33150    0.70681   1.00
H2       0.00912    0.17088    0.76413   1.00
H2       -0.03712   0.15074    0.77984   1.00
H2       -0.08300   0.34744    0.71305   1.00
H2       -0.12895   0.33261    0.73386   1.00
H2       -0.19030   0.36886    0.69371   1.00
H2       0.05753    0.11871    0.78765   1.00
H2       0.01237    0.09088    0.78799   1.00
C2       0.10395    0.25023    0.75267   1.00
C3       0.08403    0.22511    0.72680   1.00
O2       0.10326    0.19421    0.70959   1.00
C3       0.08174    0.27617    0.77588   1.00
H1       0.09615    0.29647    0.79523   1.00
C3a      0.04287    0.22570    0.72544   1.00
H1       0.02798    0.20475    0.70713   1.00
C3b      0.04078    0.27582    0.77536   1.00
C4       0.02100    0.25041    0.75008   1.00
O3       -0.02167   0.20449    0.80463   1.00
C5       0.11280    0.20331    0.67059   1.00
H2       0.08609    0.20986    0.65310   1.00
C5       0.13326    0.16769    0.65352   1.00
H2       0.13274    0.22897    0.66916   1.00
H2       0.11068    0.14581    0.64530   1.00
H2       0.15093    0.15429    0.67729   1.00
C5       0.15918    0.17762    0.61820   1.00
H2       0.14176    0.19371    0.59609   1.00
C5       0.17547    0.14023    0.59937   1.00
H2       0.18493    0.19562    0.62702   1.00
C5       0.00983    0.14537    0.82164   1.00
H2       -0.01215   0.13641    0.84385   1.00
H2       0.03048    0.16568    0.83641   1.00
C5       0.03200    0.10967    0.80576   1.00
C5       0.04775    0.08501    0.83984   1.00
H2       -0.19286   0.39391    0.62955   1.00
H2       -0.18447   0.43742    0.66094   1.00
H2       -0.14323   0.41567    0.63311   1.00
H2       -0.03105   0.32747    0.95890   1.00
H2       -0.00551   0.36649    0.93107   1.00
H2       -0.05293   0.34698    0.91318   1.00
H2       0.20613    0.14605    0.58788   1.00
H2       0.17656    0.11595    0.62207   1.00
H2       0.15577    0.13100    0.57421   1.00
H2       0.04366    0.10163    0.86836   1.00
H2       0.03116    0.05623    0.84130   1.00
H2       0.08010    0.07893    0.83510   1.00
C5       0.63218    0.35061    0.82715   1.00
H2       0.64745    0.32645    0.84240   1.00
H2       0.61090    0.36252    0.84850   1.00
C5       0.66194    0.38216    0.81544   1.00
C5       0.67123    0.40903    0.85022   1.00
H2       0.65015    0.40008    0.79105   1.00
O3       0.48000    0.30206    0.70199   1.00
C4       0.52100    0.24959    0.75008   1.00
C3c      0.54243    0.27276    0.77621   1.00
H1       0.52725    0.29102    0.79697   1.00
C3d      0.54135    0.22558    0.72364   1.00
C3       0.58354    0.27323    0.77567   1.00
O2       0.60248    0.29287    0.80513   1.00
C3       0.58227    0.22654    0.72252   1.00
H1       0.59657    0.20867    0.70081   1.00
C2       0.60439    0.25012    0.74845   1.00
C5       0.47879    0.28991    0.66264   1.00
H2       0.44838    0.28824    0.65121   1.00
H2       0.49266    0.26068    0.65896   1.00
C5       0.50129    0.31982    0.63860   1.00
H2       0.53137    0.32230    0.65071   1.00
H2       0.48698    0.34881    0.64219   1.00
C5       0.50262    0.30802    0.59527   1.00
H2       0.47268    0.30523    0.58306   1.00
H2       0.51811    0.27973    0.59151   1.00
C5       0.52445    0.33927    0.57149   1.00
C5       0.51105    0.16776    0.71064   1.00
C5       0.61070    0.33150    0.79319   1.00
H2       0.49088    0.17088    0.73587   1.00
H2       0.53712    0.15074    0.72016   1.00
H2       0.58300    0.34744    0.78695   1.00
H2       0.62895    0.33261    0.76614   1.00
H2       0.69030    0.36886    0.80629   1.00
H2       0.44247    0.11871    0.71235   1.00
H2       0.48763    0.09088    0.71201   1.00
C2       0.39605    0.25023    0.74733   1.00
C3       0.41597    0.22511    0.77320   1.00
O2       0.39674    0.19421    0.79041   1.00
C3       0.41826    0.27617    0.72412   1.00
H1       0.40385    0.29647    0.70477   1.00
C3a      0.45713    0.22570    0.77456   1.00
H1       0.47202    0.20475    0.79287   1.00
C3b      0.45922    0.27582    0.72464   1.00
C4       0.47900    0.25041    0.74992   1.00
O3       0.52167    0.20449    0.69537   1.00
C5       0.38720    0.20331    0.82941   1.00
H2       0.41391    0.20986    0.84690   1.00
C5       0.36674    0.16769    0.84648   1.00
H2       0.36726    0.22897    0.83084   1.00
H2       0.38932    0.14581    0.85470   1.00
H2       0.34907    0.15429    0.82271   1.00
C5       0.34082    0.17762    0.88180   1.00
H2       0.35824    0.19371    0.90391   1.00
C5       0.32453    0.14023    0.90063   1.00
H2       0.31507    0.19562    0.87298   1.00
C5       0.49017    0.14537    0.67836   1.00
H2       0.51215    0.13641    0.65615   1.00
H2       0.46952    0.16568    0.66359   1.00
C5       0.46800    0.10967    0.69424   1.00
C5       0.45225    0.08501    0.66016   1.00
H2       0.69286    0.39391    0.87045   1.00
H2       0.68447    0.43742    0.83906   1.00
H2       0.64323    0.41567    0.86689   1.00
H2       0.53105    0.32747    0.54110   1.00
H2       0.50551    0.36649    0.56893   1.00
H2       0.55293    0.34698    0.58682   1.00
H2       0.29387    0.14605    0.91212   1.00
H2       0.32344    0.11595    0.87793   1.00
H2       0.34423    0.13100    0.92579   1.00
H2       0.45634    0.10163    0.63164   1.00
H2       0.46884    0.05623    0.65870   1.00
H2       0.41990    0.07893    0.66490   1.00
C5       0.17285    -0.13218   0.85061   1.00
H2       0.15760    -0.14745   0.82645   1.00
H2       0.15150    -0.11090   0.86252   1.00
C5       0.18456    -0.16194   0.88216   1.00
C5       0.14978    -0.17123   0.90903   1.00
H2       0.20895    -0.15015   0.90008   1.00
O3       0.29801    0.02000    0.80206   1.00
C4       0.24992    -0.02100   0.74959   1.00
C3c      0.22379    -0.04243   0.77276   1.00
H1       0.20303    -0.02725   0.79102   1.00
C3d      0.27636    -0.04135   0.72558   1.00
C3       0.22433    -0.08354   0.77323   1.00
O2       0.19487    -0.10248   0.79287   1.00
C3       0.27748    -0.08227   0.72654   1.00
H1       0.29919    -0.09657   0.70867   1.00
C2       0.25155    -0.10439   0.75012   1.00
C5       0.33736    0.02121    0.78991   1.00
H2       0.34879    0.05162    0.78824   1.00
H2       0.34104    0.00734    0.76068   1.00
C5       0.36140    -0.00129   0.81982   1.00
H2       0.34929    -0.03137   0.82230   1.00
H2       0.35781    0.01302    0.84881   1.00
C5       0.40473    -0.00262   0.80802   1.00
H2       0.41694    0.02732    0.80523   1.00
H2       0.40849    -0.01811   0.77973   1.00
C5       0.42851    -0.02445   0.83927   1.00
C5       0.28936    -0.01105   0.66776   1.00
C5       0.20681    -0.11070   0.83150   1.00
H2       0.26413    0.00912    0.67088   1.00
H2       0.27984    -0.03712   0.65074   1.00
H2       0.21305    -0.08300   0.84744   1.00
H2       0.23386    -0.12895   0.83261   1.00
H2       0.19371    -0.19030   0.86886   1.00
H2       0.28765    0.05753    0.61871   1.00
H2       0.28799    0.01237    0.59088   1.00
C2       0.25267    0.10395    0.75023   1.00
C3       0.22680    0.08403    0.72511   1.00
O2       0.20959    0.10326    0.69421   1.00
C3       0.27588    0.08174    0.77617   1.00
H1       0.29523    0.09615    0.79647   1.00
C3a      0.22544    0.04287    0.72570   1.00
H1       0.20713    0.02798    0.70475   1.00
C3b      0.27536    0.04078    0.77582   1.00
C4       0.25008    0.02100    0.75041   1.00
O3       0.30463    -0.02167   0.70449   1.00
C5       0.17059    0.11280    0.70331   1.00
H2       0.15310    0.08609    0.70986   1.00
C5       0.15352    0.13326    0.66769   1.00
H2       0.16916    0.13274    0.72897   1.00
H2       0.14530    0.11068    0.64581   1.00
H2       0.17729    0.15093    0.65429   1.00
C5       0.11820    0.15918    0.67762   1.00
H2       0.09609    0.14176    0.69371   1.00
C5       0.09937    0.17547    0.64023   1.00
H2       0.12702    0.18493    0.69562   1.00
C5       0.32164    0.00983    0.64537   1.00
H2       0.34385    -0.01215   0.63641   1.00
H2       0.33641    0.03048    0.66568   1.00
C5       0.30576    0.03200    0.60967   1.00
C5       0.33984    0.04775    0.58501   1.00
H2       0.12955    -0.19286   0.89391   1.00
H2       0.16094    -0.18447   0.93742   1.00
H2       0.13311    -0.14323   0.91567   1.00
H2       0.45890    -0.03105   0.82747   1.00
H2       0.43107    -0.00551   0.86649   1.00
H2       0.41318    -0.05293   0.84698   1.00
H2       0.08788    0.20613    0.64605   1.00
H2       0.12207    0.17656    0.61595   1.00
H2       0.07421    0.15577    0.63100   1.00
H2       0.36836    0.04366    0.60163   1.00
H2       0.34130    0.03116    0.55623   1.00
H2       0.33510    0.08010    0.57893   1.00
C5       0.35061    0.17285    0.36782   1.00
H2       0.32645    0.15760    0.35255   1.00
H2       0.36252    0.15150    0.38910   1.00
C5       0.38216    0.18456    0.33806   1.00
C5       0.40903    0.14978    0.32877   1.00
H2       0.40008    0.20895    0.34985   1.00
O3       0.30206    0.29801    0.52000   1.00
C4       0.24959    0.24992    0.47900   1.00
C3c      0.27276    0.22379    0.45757   1.00
H1       0.29102    0.20303    0.47275   1.00
C3d      0.22558    0.27636    0.45865   1.00
C3       0.27323    0.22433    0.41646   1.00
O2       0.29287    0.19487    0.39752   1.00
C3       0.22654    0.27748    0.41773   1.00
H1       0.20867    0.29919    0.40343   1.00
C2       0.25012    0.25155    0.39561   1.00
C5       0.28991    0.33736    0.52121   1.00
H2       0.28824    0.34879    0.55162   1.00
H2       0.26068    0.34104    0.50734   1.00
C5       0.31982    0.36140    0.49871   1.00
H2       0.32230    0.34929    0.46863   1.00
H2       0.34881    0.35781    0.51302   1.00
C5       0.30802    0.40473    0.49738   1.00
H2       0.30523    0.41694    0.52732   1.00
H2       0.27973    0.40849    0.48189   1.00
C5       0.33927    0.42851    0.47555   1.00
C5       0.16776    0.28936    0.48895   1.00
C5       0.33150    0.20681    0.38930   1.00
H2       0.17088    0.26413    0.50912   1.00
H2       0.15074    0.27984    0.46288   1.00
H2       0.34744    0.21305    0.41700   1.00
H2       0.33261    0.23386    0.37105   1.00
H2       0.36886    0.19371    0.30970   1.00
H2       0.11871    0.28765    0.55753   1.00
H2       0.09088    0.28799    0.51237   1.00
C2       0.25023    0.25267    0.60395   1.00
C3       0.22511    0.22680    0.58403   1.00
O2       0.19421    0.20959    0.60326   1.00
C3       0.27617    0.27588    0.58174   1.00
H1       0.29647    0.29523    0.59615   1.00
C3a      0.22570    0.22544    0.54287   1.00
H1       0.20475    0.20713    0.52798   1.00
C3b      0.27582    0.27536    0.54078   1.00
C4       0.25041    0.25008    0.52100   1.00
O3       0.20449    0.30463    0.47833   1.00
C5       0.20331    0.17059    0.61280   1.00
H2       0.20986    0.15310    0.58609   1.00
C5       0.16769    0.15352    0.63326   1.00
H2       0.22897    0.16916    0.63274   1.00
H2       0.14581    0.14530    0.61068   1.00
H2       0.15429    0.17729    0.65093   1.00
C5       0.17762    0.11820    0.65918   1.00
H2       0.19371    0.09609    0.64176   1.00
C5       0.14023    0.09937    0.67547   1.00
H2       0.19562    0.12702    0.68493   1.00
C5       0.14537    0.32164    0.50983   1.00
H2       0.13641    0.34385    0.48785   1.00
H2       0.16568    0.33641    0.53048   1.00
C5       0.10967    0.30576    0.53200   1.00
C5       0.08501    0.33984    0.54775   1.00
H2       0.39391    0.12955    0.30714   1.00
H2       0.43742    0.16094    0.31553   1.00
H2       0.41567    0.13311    0.35677   1.00
H2       0.32747    0.45890    0.46895   1.00
H2       0.36649    0.43107    0.49449   1.00
H2       0.34698    0.41318    0.44707   1.00
H2       0.14605    0.08788    0.70613   1.00
H2       0.11595    0.12207    0.67656   1.00
H2       0.13100    0.07421    0.65577   1.00
H2       0.10163    0.36836    0.54366   1.00
H2       0.05623    0.34130    0.53116   1.00
H2       0.07893    0.33510    0.58010   1.00
C5       0.35061    0.82715    0.63218   1.00
H2       0.32645    0.84240    0.64745   1.00
H2       0.36252    0.84850    0.61090   1.00
C5       0.38216    0.81544    0.66194   1.00
C5       0.40903    0.85022    0.67123   1.00
H2       0.40008    0.79105    0.65015   1.00
O3       0.30206    0.70199    0.48000   1.00
C4       0.24959    0.75008    0.52100   1.00
C3c      0.27276    0.77621    0.54243   1.00
H1       0.29102    0.79697    0.52725   1.00
C3d      0.22558    0.72364    0.54135   1.00
C3       0.27323    0.77567    0.58354   1.00
O2       0.29287    0.80513    0.60248   1.00
C3       0.22654    0.72252    0.58227   1.00
H1       0.20867    0.70081    0.59657   1.00
C2       0.25012    0.74845    0.60439   1.00
C5       0.28991    0.66264    0.47879   1.00
H2       0.28824    0.65121    0.44838   1.00
H2       0.26068    0.65896    0.49266   1.00
C5       0.31982    0.63860    0.50129   1.00
H2       0.32230    0.65071    0.53137   1.00
H2       0.34881    0.64219    0.48698   1.00
C5       0.30802    0.59527    0.50262   1.00
H2       0.30523    0.58306    0.47268   1.00
H2       0.27973    0.59151    0.51811   1.00
C5       0.33927    0.57149    0.52445   1.00
C5       0.16776    0.71064    0.51105   1.00
C5       0.33150    0.79319    0.61070   1.00
H2       0.17088    0.73587    0.49088   1.00
H2       0.15074    0.72016    0.53712   1.00
H2       0.34744    0.78695    0.58300   1.00
H2       0.33261    0.76614    0.62895   1.00
H2       0.36886    0.80629    0.69030   1.00
H2       0.11871    0.71235    0.44247   1.00
H2       0.09088    0.71201    0.48763   1.00
C2       0.25023    0.74733    0.39605   1.00
C3       0.22511    0.77320    0.41597   1.00
O2       0.19421    0.79041    0.39674   1.00
C3       0.27617    0.72412    0.41826   1.00
H1       0.29647    0.70477    0.40385   1.00
C3a      0.22570    0.77456    0.45713   1.00
H1       0.20475    0.79287    0.47202   1.00
C3b      0.27582    0.72464    0.45922   1.00
C4       0.25041    0.74992    0.47900   1.00
O3       0.20449    0.69537    0.52167   1.00
C5       0.20331    0.82941    0.38720   1.00
H2       0.20986    0.84690    0.41391   1.00
C5       0.16769    0.84648    0.36674   1.00
H2       0.22897    0.83084    0.36726   1.00
H2       0.14581    0.85470    0.38932   1.00
H2       0.15429    0.82271    0.34907   1.00
C5       0.17762    0.88180    0.34082   1.00
H2       0.19371    0.90391    0.35824   1.00
C5       0.14023    0.90063    0.32453   1.00
H2       0.19562    0.87298    0.31507   1.00
C5       0.14537    0.67836    0.49017   1.00
H2       0.13641    0.65615    0.51215   1.00
H2       0.16568    0.66359    0.46952   1.00
C5       0.10967    0.69424    0.46800   1.00
C5       0.08501    0.66016    0.45225   1.00
H2       0.39391    0.87045    0.69286   1.00
H2       0.43742    0.83906    0.68447   1.00
H2       0.41567    0.86689    0.64323   1.00
H2       0.32747    0.54110    0.53105   1.00
H2       0.36649    0.56893    0.50551   1.00
H2       0.34698    0.58682    0.55293   1.00
H2       0.14605    0.91212    0.29387   1.00
H2       0.11595    0.87793    0.32344   1.00
H2       0.13100    0.92579    0.34423   1.00
H2       0.10163    0.63164    0.45634   1.00
H2       0.05623    0.65870    0.46884   1.00
H2       0.07893    0.66490    0.41990   1.00
C5       0.32715    1.13218    0.35061   1.00
H2       0.34240    1.14745    0.32645   1.00
H2       0.34850    1.11090    0.36252   1.00
C5       0.31544    1.16194    0.38216   1.00
C5       0.35022    1.17123    0.40903   1.00
H2       0.29105    1.15015    0.40008   1.00
O3       0.20199    0.98000    0.30206   1.00
C4       0.25008    1.02100    0.24959   1.00
C3c      0.27621    1.04243    0.27276   1.00
H1       0.29697    1.02725    0.29102   1.00
C3d      0.22364    1.04135    0.22558   1.00
C3       0.27567    1.08354    0.27323   1.00
O2       0.30513    1.10248    0.29287   1.00
C3       0.22252    1.08227    0.22654   1.00
H1       0.20081    1.09657    0.20867   1.00
C2       0.24845    1.10439    0.25012   1.00
C5       0.16264    0.97879    0.28991   1.00
H2       0.15121    0.94838    0.28824   1.00
H2       0.15896    0.99266    0.26068   1.00
C5       0.13860    1.00129    0.31982   1.00
H2       0.15071    1.03137    0.32230   1.00
H2       0.14219    0.98698    0.34881   1.00
C5       0.09527    1.00262    0.30802   1.00
H2       0.08306    0.97268    0.30523   1.00
H2       0.09151    1.01811    0.27973   1.00
C5       0.07149    1.02445    0.33927   1.00
C5       0.21064    1.01105    0.16776   1.00
C5       0.29319    1.11070    0.33150   1.00
H2       0.23587    0.99088    0.17088   1.00
H2       0.22016    1.03712    0.15074   1.00
H2       0.28695    1.08300    0.34744   1.00
H2       0.26614    1.12895    0.33261   1.00
H2       0.30629    1.19030    0.36886   1.00
H2       0.21235    0.94247    0.11871   1.00
H2       0.21201    0.98763    0.09088   1.00
C2       0.24733    0.89605    0.25023   1.00
C3       0.27320    0.91597    0.22511   1.00
O2       0.29041    0.89674    0.19421   1.00
C3       0.22412    0.91826    0.27617   1.00
H1       0.20477    0.90385    0.29647   1.00
C3a      0.27456    0.95713    0.22570   1.00
H1       0.29287    0.97202    0.20475   1.00
C3b      0.22464    0.95922    0.27582   1.00
C4       0.24992    0.97900    0.25041   1.00
O3       0.19537    1.02167    0.20449   1.00
C5       0.32941    0.88720    0.20331   1.00
H2       0.34690    0.91391    0.20986   1.00
C5       0.34648    0.86674    0.16769   1.00
H2       0.33084    0.86726    0.22897   1.00
H2       0.35470    0.88932    0.14581   1.00
H2       0.32271    0.84907    0.15429   1.00
C5       0.38180    0.84082    0.17762   1.00
H2       0.40391    0.85824    0.19371   1.00
C5       0.40063    0.82453    0.14023   1.00
H2       0.37298    0.81507    0.19562   1.00
C5       0.17836    0.99017    0.14537   1.00
H2       0.15615    1.01215    0.13641   1.00
H2       0.16359    0.96952    0.16568   1.00
C5       0.19424    0.96800    0.10967   1.00
C5       0.16016    0.95225    0.08501   1.00
H2       0.37045    1.19286    0.39391   1.00
H2       0.33906    1.18447    0.43742   1.00
H2       0.36689    1.14323    0.41567   1.00
H2       0.04110    1.03105    0.32747   1.00
H2       0.06893    1.00551    0.36649   1.00
H2       0.08682    1.05293    0.34698   1.00
H2       0.41212    0.79387    0.14605   1.00
H2       0.37793    0.82344    0.11595   1.00
H2       0.42579    0.84423    0.13100   1.00
H2       0.13164    0.95634    0.10163   1.00
H2       0.15870    0.96884    0.05623   1.00
H2       0.16490    0.91990    0.07893   1.00
C5       -0.13218   0.85061    0.17285   1.00
H2       -0.14745   0.82645    0.15760   1.00
H2       -0.11090   0.86252    0.15150   1.00
C5       -0.16194   0.88216    0.18456   1.00
C5       -0.17123   0.90903    0.14978   1.00
H2       -0.15015   0.90008    0.20895   1.00
O3       0.02000    0.80206    0.29801   1.00
C4       -0.02100   0.74959    0.24992   1.00
C3c      -0.04243   0.77276    0.22379   1.00
H1       -0.02725   0.79102    0.20303   1.00
C3d      -0.04135   0.72558    0.27636   1.00
C3       -0.08354   0.77323    0.22433   1.00
O2       -0.10248   0.79287    0.19487   1.00
C3       -0.08227   0.72654    0.27748   1.00
H1       -0.09657   0.70867    0.29919   1.00
C2       -0.10439   0.75012    0.25155   1.00
C5       0.02121    0.78991    0.33736   1.00
H2       0.05162    0.78824    0.34879   1.00
H2       0.00734    0.76068    0.34104   1.00
C5       -0.00129   0.81982    0.36140   1.00
H2       -0.03137   0.82230    0.34929   1.00
H2       0.01302    0.84881    0.35781   1.00
C5       -0.00262   0.80802    0.40473   1.00
H2       0.02732    0.80523    0.41694   1.00
H2       -0.01811   0.77973    0.40849   1.00
C5       -0.02445   0.83927    0.42851   1.00
C5       -0.01105   0.66776    0.28936   1.00
C5       -0.11070   0.83150    0.20681   1.00
H2       0.00912    0.67088    0.26413   1.00
H2       -0.03712   0.65074    0.27984   1.00
H2       -0.08300   0.84744    0.21305   1.00
H2       -0.12895   0.83261    0.23386   1.00
H2       -0.19030   0.86886    0.19371   1.00
H2       0.05753    0.61871    0.28765   1.00
H2       0.01237    0.59088    0.28799   1.00
C2       0.10395    0.75023    0.25267   1.00
C3       0.08403    0.72511    0.22680   1.00
O2       0.10326    0.69421    0.20959   1.00
C3       0.08174    0.77617    0.27588   1.00
H1       0.09615    0.79647    0.29523   1.00
C3a      0.04287    0.72570    0.22544   1.00
H1       0.02798    0.70475    0.20713   1.00
C3b      0.04078    0.77582    0.27536   1.00
C4       0.02100    0.75041    0.25008   1.00
O3       -0.02167   0.70449    0.30463   1.00
C5       0.11280    0.70331    0.17059   1.00
H2       0.08609    0.70986    0.15310   1.00
C5       0.13326    0.66769    0.15352   1.00
H2       0.13274    0.72897    0.16916   1.00
H2       0.11068    0.64581    0.14530   1.00
H2       0.15093    0.65429    0.17729   1.00
C5       0.15918    0.67762    0.11820   1.00
H2       0.14176    0.69371    0.09609   1.00
C5       0.17547    0.64023    0.09937   1.00
H2       0.18493    0.69562    0.12702   1.00
C5       0.00983    0.64537    0.32164   1.00
H2       -0.01215   0.63641    0.34385   1.00
H2       0.03048    0.66568    0.33641   1.00
C5       0.03200    0.60967    0.30576   1.00
C5       0.04775    0.58501    0.33984   1.00
H2       -0.19286   0.89391    0.12955   1.00
H2       -0.18447   0.93742    0.16094   1.00
H2       -0.14323   0.91567    0.13311   1.00
H2       -0.03105   0.82747    0.45890   1.00
H2       -0.00551   0.86649    0.43107   1.00
H2       -0.05293   0.84698    0.41318   1.00
H2       0.20613    0.64605    0.08788   1.00
H2       0.17656    0.61595    0.12207   1.00
H2       0.15577    0.63100    0.07421   1.00
H2       0.04366    0.60163    0.36836   1.00
H2       0.03116    0.55623    0.34130   1.00
H2       0.08010    0.57893    0.33510   1.00
C5       0.63218    0.85061    0.32715   1.00
H2       0.64745    0.82645    0.34240   1.00
H2       0.61090    0.86252    0.34850   1.00
C5       0.66194    0.88216    0.31544   1.00
C5       0.67123    0.90903    0.35022   1.00
H2       0.65015    0.90008    0.29105   1.00
O3       0.48000    0.80206    0.20199   1.00
C4       0.52100    0.74959    0.25008   1.00
C3c      0.54243    0.77276    0.27621   1.00
H1       0.52725    0.79102    0.29697   1.00
C3d      0.54135    0.72558    0.22364   1.00
C3       0.58354    0.77323    0.27567   1.00
O2       0.60248    0.79287    0.30513   1.00
C3       0.58227    0.72654    0.22252   1.00
H1       0.59657    0.70867    0.20081   1.00
C2       0.60439    0.75012    0.24845   1.00
C5       0.47879    0.78991    0.16264   1.00
H2       0.44838    0.78824    0.15121   1.00
H2       0.49266    0.76068    0.15896   1.00
C5       0.50129    0.81982    0.13860   1.00
H2       0.53137    0.82230    0.15071   1.00
H2       0.48698    0.84881    0.14219   1.00
C5       0.50262    0.80802    0.09527   1.00
H2       0.47268    0.80523    0.08306   1.00
H2       0.51811    0.77973    0.09151   1.00
C5       0.52445    0.83927    0.07149   1.00
C5       0.51105    0.66776    0.21064   1.00
C5       0.61070    0.83150    0.29319   1.00
H2       0.49088    0.67088    0.23587   1.00
H2       0.53712    0.65074    0.22016   1.00
H2       0.58300    0.84744    0.28695   1.00
H2       0.62895    0.83261    0.26614   1.00
H2       0.69030    0.86886    0.30629   1.00
H2       0.44247    0.61871    0.21235   1.00
H2       0.48763    0.59088    0.21201   1.00
C2       0.39605    0.75023    0.24733   1.00
C3       0.41597    0.72511    0.27320   1.00
O2       0.39674    0.69421    0.29041   1.00
C3       0.41826    0.77617    0.22412   1.00
H1       0.40385    0.79647    0.20477   1.00
C3a      0.45713    0.72570    0.27456   1.00
H1       0.47202    0.70475    0.29287   1.00
C3b      0.45922    0.77582    0.22464   1.00
C4       0.47900    0.75041    0.24992   1.00
O3       0.52167    0.70449    0.19537   1.00
C5       0.38720    0.70331    0.32941   1.00
H2       0.41391    0.70986    0.34690   1.00
C5       0.36674    0.66769    0.34648   1.00
H2       0.36726    0.72897    0.33084   1.00
H2       0.38932    0.64581    0.35470   1.00
H2       0.34907    0.65429    0.32271   1.00
C5       0.34082    0.67762    0.38180   1.00
H2       0.35824    0.69371    0.40391   1.00
C5       0.32453    0.64023    0.40063   1.00
H2       0.31507    0.69562    0.37298   1.00
C5       0.49017    0.64537    0.17836   1.00
H2       0.51215    0.63641    0.15615   1.00
H2       0.46952    0.66568    0.16359   1.00
C5       0.46800    0.60967    0.19424   1.00
C5       0.45225    0.58501    0.16016   1.00
H2       0.69286    0.89391    0.37045   1.00
H2       0.68447    0.93742    0.33906   1.00
H2       0.64323    0.91567    0.36689   1.00
H2       0.53105    0.82747    0.04110   1.00
H2       0.50551    0.86649    0.06893   1.00
H2       0.55293    0.84698    0.08682   1.00
H2       0.29387    0.64605    0.41212   1.00
H2       0.32344    0.61595    0.37793   1.00
H2       0.34423    0.63100    0.42579   1.00
H2       0.45634    0.60163    0.13164   1.00
H2       0.46884    0.55623    0.15870   1.00
H2       0.41990    0.57893    0.16490   1.00
C5       0.17285    0.36782    0.35061   1.00
H2       0.15760    0.35255    0.32645   1.00
H2       0.15150    0.38910    0.36252   1.00
C5       0.18456    0.33806    0.38216   1.00
C5       0.14978    0.32877    0.40903   1.00
H2       0.20895    0.34985    0.40008   1.00
O3       0.29801    0.52000    0.30206   1.00
C4       0.24992    0.47900    0.24959   1.00
C3c      0.22379    0.45757    0.27276   1.00
H1       0.20303    0.47275    0.29102   1.00
C3d      0.27636    0.45865    0.22558   1.00
C3       0.22433    0.41646    0.27323   1.00
O2       0.19487    0.39752    0.29287   1.00
C3       0.27748    0.41773    0.22654   1.00
H1       0.29919    0.40343    0.20867   1.00
C2       0.25155    0.39561    0.25012   1.00
C5       0.33736    0.52121    0.28991   1.00
H2       0.34879    0.55162    0.28824   1.00
H2       0.34104    0.50734    0.26068   1.00
C5       0.36140    0.49871    0.31982   1.00
H2       0.34929    0.46863    0.32230   1.00
H2       0.35781    0.51302    0.34881   1.00
C5       0.40473    0.49738    0.30802   1.00
H2       0.41694    0.52732    0.30523   1.00
H2       0.40849    0.48189    0.27973   1.00
C5       0.42851    0.47555    0.33927   1.00
C5       0.28936    0.48895    0.16776   1.00
C5       0.20681    0.38930    0.33150   1.00
H2       0.26413    0.50912    0.17088   1.00
H2       0.27984    0.46288    0.15074   1.00
H2       0.21305    0.41700    0.34744   1.00
H2       0.23386    0.37105    0.33261   1.00
H2       0.19371    0.30970    0.36886   1.00
H2       0.28765    0.55753    0.11871   1.00
H2       0.28799    0.51237    0.09088   1.00
C2       0.25267    0.60395    0.25023   1.00
C3       0.22680    0.58403    0.22511   1.00
O2       0.20959    0.60326    0.19421   1.00
C3       0.27588    0.58174    0.27617   1.00
H1       0.29523    0.59615    0.29647   1.00
C3a      0.22544    0.54287    0.22570   1.00
H1       0.20713    0.52798    0.20475   1.00
C3b      0.27536    0.54078    0.27582   1.00
C4       0.25008    0.52100    0.25041   1.00
O3       0.30463    0.47833    0.20449   1.00
C5       0.17059    0.61280    0.20331   1.00
H2       0.15310    0.58609    0.20986   1.00
C5       0.15352    0.63326    0.16769   1.00
H2       0.16916    0.63274    0.22897   1.00
H2       0.14530    0.61068    0.14581   1.00
H2       0.17729    0.65093    0.15429   1.00
C5       0.11820    0.65918    0.17762   1.00
H2       0.09609    0.64176    0.19371   1.00
C5       0.09937    0.67547    0.14023   1.00
H2       0.12702    0.68493    0.19562   1.00
C5       0.32164    0.50983    0.14537   1.00
H2       0.34385    0.48785    0.13641   1.00
H2       0.33641    0.53048    0.16568   1.00
C5       0.30576    0.53200    0.10967   1.00
C5       0.33984    0.54775    0.08501   1.00
H2       0.12955    0.30714    0.39391   1.00
H2       0.16094    0.31553    0.43742   1.00
H2       0.13311    0.35677    0.41567   1.00
H2       0.45890    0.46895    0.32747   1.00
H2       0.43107    0.49449    0.36649   1.00
H2       0.41318    0.44707    0.34698   1.00
H2       0.08788    0.70613    0.14605   1.00
H2       0.12207    0.67656    0.11595   1.00
H2       0.07421    0.65577    0.13100   1.00
H2       0.36836    0.54366    0.10163   1.00
H2       0.34130    0.53116    0.05623   1.00
H2       0.33510    0.58010    0.07893   1.00
C5       0.35061    0.67285    -0.13218   1.00
H2       0.32645    0.65760    -0.14745   1.00
H2       0.36252    0.65150    -0.11090   1.00
C5       0.38216    0.68456    -0.16194   1.00
C5       0.40903    0.64978    -0.17123   1.00
H2       0.40008    0.70895    -0.15015   1.00
O3       0.30206    0.79801    0.02000   1.00
C4       0.24959    0.74992    -0.02100   1.00
C3c      0.27276    0.72379    -0.04243   1.00
H1       0.29102    0.70303    -0.02725   1.00
C3d      0.22558    0.77636    -0.04135   1.00
C3       0.27323    0.72433    -0.08354   1.00
O2       0.29287    0.69487    -0.10248   1.00
C3       0.22654    0.77748    -0.08227   1.00
H1       0.20867    0.79919    -0.09657   1.00
C2       0.25012    0.75155    -0.10439   1.00
C5       0.28991    0.83736    0.02121   1.00
H2       0.28824    0.84879    0.05162   1.00
H2       0.26068    0.84104    0.00734   1.00
C5       0.31982    0.86140    -0.00129   1.00
H2       0.32230    0.84929    -0.03137   1.00
H2       0.34881    0.85781    0.01302   1.00
C5       0.30802    0.90473    -0.00262   1.00
H2       0.30523    0.91694    0.02732   1.00
H2       0.27973    0.90849    -0.01811   1.00
C5       0.33927    0.92851    -0.02445   1.00
C5       0.16776    0.78936    -0.01105   1.00
C5       0.33150    0.70681    -0.11070   1.00
H2       0.17088    0.76413    0.00912   1.00
H2       0.15074    0.77984    -0.03712   1.00
H2       0.34744    0.71305    -0.08300   1.00
H2       0.33261    0.73386    -0.12895   1.00
H2       0.36886    0.69371    -0.19030   1.00
H2       0.11871    0.78765    0.05753   1.00
H2       0.09088    0.78799    0.01237   1.00
C2       0.25023    0.75267    0.10395   1.00
C3       0.22511    0.72680    0.08403   1.00
O2       0.19421    0.70959    0.10326   1.00
C3       0.27617    0.77588    0.08174   1.00
H1       0.29647    0.79523    0.09615   1.00
C3a      0.22570    0.72544    0.04287   1.00
H1       0.20475    0.70713    0.02798   1.00
C3b      0.27582    0.77536    0.04078   1.00
C4       0.25041    0.75008    0.02100   1.00
O3       0.20449    0.80463    -0.02167   1.00
C5       0.20331    0.67059    0.11280   1.00
H2       0.20986    0.65310    0.08609   1.00
C5       0.16769    0.65352    0.13326   1.00
H2       0.22897    0.66916    0.13274   1.00
H2       0.14581    0.64530    0.11068   1.00
H2       0.15429    0.67729    0.15093   1.00
C5       0.17762    0.61820    0.15918   1.00
H2       0.19371    0.59609    0.14176   1.00
C5       0.14023    0.59937    0.17547   1.00
H2       0.19562    0.62702    0.18493   1.00
C5       0.14537    0.82164    0.00983   1.00
H2       0.13641    0.84385    -0.01215   1.00
H2       0.16568    0.83641    0.03048   1.00
C5       0.10967    0.80576    0.03200   1.00
C5       0.08501    0.83984    0.04775   1.00
H2       0.39391    0.62955    -0.19286   1.00
H2       0.43742    0.66094    -0.18447   1.00
H2       0.41567    0.63311    -0.14323   1.00
H2       0.32747    0.95890    -0.03105   1.00
H2       0.36649    0.93107    -0.00551   1.00
H2       0.34698    0.91318    -0.05293   1.00
H2       0.14605    0.58788    0.20613   1.00
H2       0.11595    0.62207    0.17656   1.00
H2       0.13100    0.57421    0.15577   1.00
H2       0.10163    0.86836    0.04366   1.00
H2       0.05623    0.84130    0.03116   1.00
H2       0.07893    0.83510    0.08010   1.00
C5       0.85061    0.32715    0.63218   1.00
H2       0.82645    0.34240    0.64745   1.00
H2       0.86252    0.34850    0.61090   1.00
C5       0.88216    0.31544    0.66194   1.00
C5       0.90903    0.35022    0.67123   1.00
H2       0.90008    0.29105    0.65015   1.00
O3       0.80206    0.20199    0.48000   1.00
C4       0.74959    0.25008    0.52100   1.00
C3c      0.77276    0.27621    0.54243   1.00
H1       0.79102    0.29697    0.52725   1.00
C3d      0.72558    0.22364    0.54135   1.00
C3       0.77323    0.27567    0.58354   1.00
O2       0.79287    0.30513    0.60248   1.00
C3       0.72654    0.22252    0.58227   1.00
H1       0.70867    0.20081    0.59657   1.00
C2       0.75012    0.24845    0.60439   1.00
C5       0.78991    0.16264    0.47879   1.00
H2       0.78824    0.15121    0.44838   1.00
H2       0.76068    0.15896    0.49266   1.00
C5       0.81982    0.13860    0.50129   1.00
H2       0.82230    0.15071    0.53137   1.00
H2       0.84881    0.14219    0.48698   1.00
C5       0.80802    0.09527    0.50262   1.00
H2       0.80523    0.08306    0.47268   1.00
H2       0.77973    0.09151    0.51811   1.00
C5       0.83927    0.07149    0.52445   1.00
C5       0.66776    0.21064    0.51105   1.00
C5       0.83150    0.29319    0.61070   1.00
H2       0.67088    0.23587    0.49088   1.00
H2       0.65074    0.22016    0.53712   1.00
H2       0.84744    0.28695    0.58300   1.00
H2       0.83261    0.26614    0.62895   1.00
H2       0.86886    0.30629    0.69030   1.00
H2       0.61871    0.21235    0.44247   1.00
H2       0.59088    0.21201    0.48763   1.00
C2       0.75023    0.24733    0.39605   1.00
C3       0.72511    0.27320    0.41597   1.00
O2       0.69421    0.29041    0.39674   1.00
C3       0.77617    0.22412    0.41826   1.00
H1       0.79647    0.20477    0.40385   1.00
C3a      0.72570    0.27456    0.45713   1.00
H1       0.70475    0.29287    0.47202   1.00
C3b      0.77582    0.22464    0.45922   1.00
C4       0.75041    0.24992    0.47900   1.00
O3       0.70449    0.19537    0.52167   1.00
C5       0.70331    0.32941    0.38720   1.00
H2       0.70986    0.34690    0.41391   1.00
C5       0.66769    0.34648    0.36674   1.00
H2       0.72897    0.33084    0.36726   1.00
H2       0.64581    0.35470    0.38932   1.00
H2       0.65429    0.32271    0.34907   1.00
C5       0.67762    0.38180    0.34082   1.00
H2       0.69371    0.40391    0.35824   1.00
C5       0.64023    0.40063    0.32453   1.00
H2       0.69562    0.37298    0.31507   1.00
C5       0.64537    0.17836    0.49017   1.00
H2       0.63641    0.15615    0.51215   1.00
H2       0.66568    0.16359    0.46952   1.00
C5       0.60967    0.19424    0.46800   1.00
C5       0.58501    0.16016    0.45225   1.00
H2       0.89391    0.37045    0.69286   1.00
H2       0.93742    0.33906    0.68447   1.00
H2       0.91567    0.36689    0.64323   1.00
H2       0.82747    0.04110    0.53105   1.00
H2       0.86649    0.06893    0.50551   1.00
H2       0.84698    0.08682    0.55293   1.00
H2       0.64605    0.41212    0.29387   1.00
H2       0.61595    0.37793    0.32344   1.00
H2       0.63100    0.42579    0.34423   1.00
H2       0.60163    0.13164    0.45634   1.00
H2       0.55623    0.15870    0.46884   1.00
H2       0.57893    0.16490    0.41990   1.00
C5       0.82715    0.63218    0.35061   1.00
H2       0.84240    0.64745    0.32645   1.00
H2       0.84850    0.61090    0.36252   1.00
C5       0.81544    0.66194    0.38216   1.00
C5       0.85022    0.67123    0.40903   1.00
H2       0.79105    0.65015    0.40008   1.00
O3       0.70199    0.48000    0.30206   1.00
C4       0.75008    0.52100    0.24959   1.00
C3c      0.77621    0.54243    0.27276   1.00
H1       0.79697    0.52725    0.29102   1.00
C3d      0.72364    0.54135    0.22558   1.00
C3       0.77567    0.58354    0.27323   1.00
O2       0.80513    0.60248    0.29287   1.00
C3       0.72252    0.58227    0.22654   1.00
H1       0.70081    0.59657    0.20867   1.00
C2       0.74845    0.60439    0.25012   1.00
C5       0.66264    0.47879    0.28991   1.00
H2       0.65121    0.44838    0.28824   1.00
H2       0.65896    0.49266    0.26068   1.00
C5       0.63860    0.50129    0.31982   1.00
H2       0.65071    0.53137    0.32230   1.00
H2       0.64219    0.48698    0.34881   1.00
C5       0.59527    0.50262    0.30802   1.00
H2       0.58306    0.47268    0.30523   1.00
H2       0.59151    0.51811    0.27973   1.00
C5       0.57149    0.52445    0.33927   1.00
C5       0.71064    0.51105    0.16776   1.00
C5       0.79319    0.61070    0.33150   1.00
H2       0.73587    0.49088    0.17088   1.00
H2       0.72016    0.53712    0.15074   1.00
H2       0.78695    0.58300    0.34744   1.00
H2       0.76614    0.62895    0.33261   1.00
H2       0.80629    0.69030    0.36886   1.00
H2       0.71235    0.44247    0.11871   1.00
H2       0.71201    0.48763    0.09088   1.00
C2       0.74733    0.39605    0.25023   1.00
C3       0.77320    0.41597    0.22511   1.00
O2       0.79041    0.39674    0.19421   1.00
C3       0.72412    0.41826    0.27617   1.00
H1       0.70477    0.40385    0.29647   1.00
C3a      0.77456    0.45713    0.22570   1.00
H1       0.79287    0.47202    0.20475   1.00
C3b      0.72464    0.45922    0.27582   1.00
C4       0.74992    0.47900    0.25041   1.00
O3       0.69537    0.52167    0.20449   1.00
C5       0.82941    0.38720    0.20331   1.00
H2       0.84690    0.41391    0.20986   1.00
C5       0.84648    0.36674    0.16769   1.00
H2       0.83084    0.36726    0.22897   1.00
H2       0.85470    0.38932    0.14581   1.00
H2       0.82271    0.34907    0.15429   1.00
C5       0.88180    0.34082    0.17762   1.00
H2       0.90391    0.35824    0.19371   1.00
C5       0.90063    0.32453    0.14023   1.00
H2       0.87298    0.31507    0.19562   1.00
C5       0.67836    0.49017    0.14537   1.00
H2       0.65615    0.51215    0.13641   1.00
H2       0.66359    0.46952    0.16568   1.00
C5       0.69424    0.46800    0.10967   1.00
C5       0.66016    0.45225    0.08501   1.00
H2       0.87045    0.69286    0.39391   1.00
H2       0.83906    0.68447    0.43742   1.00
H2       0.86689    0.64323    0.41567   1.00
H2       0.54110    0.53105    0.32747   1.00
H2       0.56893    0.50551    0.36649   1.00
H2       0.58682    0.55293    0.34698   1.00
H2       0.91212    0.29387    0.14605   1.00
H2       0.87793    0.32344    0.11595   1.00
H2       0.92579    0.34423    0.13100   1.00
H2       0.63164    0.45634    0.10163   1.00
H2       0.65870    0.46884    0.05623   1.00
H2       0.66490    0.41990    0.07893   1.00
C5       0.36782    0.35061    0.17285   1.00
H2       0.35255    0.32645    0.15760   1.00
H2       0.38910    0.36252    0.15150   1.00
C5       0.33806    0.38216    0.18456   1.00
C5       0.32877    0.40903    0.14978   1.00
H2       0.34985    0.40008    0.20895   1.00
O3       0.52000    0.30206    0.29801   1.00
C4       0.47900    0.24959    0.24992   1.00
C3c      0.45757    0.27276    0.22379   1.00
H1       0.47275    0.29102    0.20303   1.00
C3d      0.45865    0.22558    0.27636   1.00
C3       0.41646    0.27323    0.22433   1.00
O2       0.39752    0.29287    0.19487   1.00
C3       0.41773    0.22654    0.27748   1.00
H1       0.40343    0.20867    0.29919   1.00
C2       0.39561    0.25012    0.25155   1.00
C5       0.52121    0.28991    0.33736   1.00
H2       0.55162    0.28824    0.34879   1.00
H2       0.50734    0.26068    0.34104   1.00
C5       0.49871    0.31982    0.36140   1.00
H2       0.46863    0.32230    0.34929   1.00
H2       0.51302    0.34881    0.35781   1.00
C5       0.49738    0.30802    0.40473   1.00
H2       0.52732    0.30523    0.41694   1.00
H2       0.48189    0.27973    0.40849   1.00
C5       0.47555    0.33927    0.42851   1.00
C5       0.48895    0.16776    0.28936   1.00
C5       0.38930    0.33150    0.20681   1.00
H2       0.50912    0.17088    0.26413   1.00
H2       0.46288    0.15074    0.27984   1.00
H2       0.41700    0.34744    0.21305   1.00
H2       0.37105    0.33261    0.23386   1.00
H2       0.30970    0.36886    0.19371   1.00
H2       0.55753    0.11871    0.28765   1.00
H2       0.51237    0.09088    0.28799   1.00
C2       0.60395    0.25023    0.25267   1.00
C3       0.58403    0.22511    0.22680   1.00
O2       0.60326    0.19421    0.20959   1.00
C3       0.58174    0.27617    0.27588   1.00
H1       0.59615    0.29647    0.29523   1.00
C3a      0.54287    0.22570    0.22544   1.00
H1       0.52798    0.20475    0.20713   1.00
C3b      0.54078    0.27582    0.27536   1.00
C4       0.52100    0.25041    0.25008   1.00
O3       0.47833    0.20449    0.30463   1.00
C5       0.61280    0.20331    0.17059   1.00
H2       0.58609    0.20986    0.15310   1.00
C5       0.63326    0.16769    0.15352   1.00
H2       0.63274    0.22897    0.16916   1.00
H2       0.61068    0.14581    0.14530   1.00
H2       0.65093    0.15429    0.17729   1.00
C5       0.65918    0.17762    0.11820   1.00
H2       0.64176    0.19371    0.09609   1.00
C5       0.67547    0.14023    0.09937   1.00
H2       0.68493    0.19562    0.12702   1.00
C5       0.50983    0.14537    0.32164   1.00
H2       0.48785    0.13641    0.34385   1.00
H2       0.53048    0.16568    0.33641   1.00
C5       0.53200    0.10967    0.30576   1.00
C5       0.54775    0.08501    0.33984   1.00
H2       0.30714    0.39391    0.12955   1.00
H2       0.31553    0.43742    0.16094   1.00
H2       0.35677    0.41567    0.13311   1.00
H2       0.46895    0.32747    0.45890   1.00
H2       0.49449    0.36649    0.43107   1.00
H2       0.44707    0.34698    0.41318   1.00
H2       0.70613    0.14605    0.08788   1.00
H2       0.67656    0.11595    0.12207   1.00
H2       0.65577    0.13100    0.07421   1.00
H2       0.54366    0.10163    0.36836   1.00
H2       0.53116    0.05623    0.34130   1.00
H2       0.58010    0.07893    0.33510   1.00
C5       1.13218    0.35061    0.32715   1.00
H2       1.14745    0.32645    0.34240   1.00
H2       1.11090    0.36252    0.34850   1.00
C5       1.16194    0.38216    0.31544   1.00
C5       1.17123    0.40903    0.35022   1.00
H2       1.15015    0.40008    0.29105   1.00
O3       0.98000    0.30206    0.20199   1.00
C4       1.02100    0.24959    0.25008   1.00
C3c      1.04243    0.27276    0.27621   1.00
H1       1.02725    0.29102    0.29697   1.00
C3d      1.04135    0.22558    0.22364   1.00
C3       1.08354    0.27323    0.27567   1.00
O2       1.10248    0.29287    0.30513   1.00
C3       1.08227    0.22654    0.22252   1.00
H1       1.09657    0.20867    0.20081   1.00
C2       1.10439    0.25012    0.24845   1.00
C5       0.97879    0.28991    0.16264   1.00
H2       0.94838    0.28824    0.15121   1.00
H2       0.99266    0.26068    0.15896   1.00
C5       1.00129    0.31982    0.13860   1.00
H2       1.03137    0.32230    0.15071   1.00
H2       0.98698    0.34881    0.14219   1.00
C5       1.00262    0.30802    0.09527   1.00
H2       0.97268    0.30523    0.08306   1.00
H2       1.01811    0.27973    0.09151   1.00
C5       1.02445    0.33927    0.07149   1.00
C5       1.01105    0.16776    0.21064   1.00
C5       1.11070    0.33150    0.29319   1.00
H2       0.99088    0.17088    0.23587   1.00
H2       1.03712    0.15074    0.22016   1.00
H2       1.08300    0.34744    0.28695   1.00
H2       1.12895    0.33261    0.26614   1.00
H2       1.19030    0.36886    0.30629   1.00
H2       0.94247    0.11871    0.21235   1.00
H2       0.98763    0.09088    0.21201   1.00
C2       0.89605    0.25023    0.24733   1.00
C3       0.91597    0.22511    0.27320   1.00
O2       0.89674    0.19421    0.29041   1.00
C3       0.91826    0.27617    0.22412   1.00
H1       0.90385    0.29647    0.20477   1.00
C3a      0.95713    0.22570    0.27456   1.00
H1       0.97202    0.20475    0.29287   1.00
C3b      0.95922    0.27582    0.22464   1.00
C4       0.97900    0.25041    0.24992   1.00
O3       1.02167    0.20449    0.19537   1.00
C5       0.88720    0.20331    0.32941   1.00
H2       0.91391    0.20986    0.34690   1.00
C5       0.86674    0.16769    0.34648   1.00
H2       0.86726    0.22897    0.33084   1.00
H2       0.88932    0.14581    0.35470   1.00
H2       0.84907    0.15429    0.32271   1.00
C5       0.84082    0.17762    0.38180   1.00
H2       0.85824    0.19371    0.40391   1.00
C5       0.82453    0.14023    0.40063   1.00
H2       0.81507    0.19562    0.37298   1.00
C5       0.99017    0.14537    0.17836   1.00
H2       1.01215    0.13641    0.15615   1.00
H2       0.96952    0.16568    0.16359   1.00
C5       0.96800    0.10967    0.19424   1.00
C5       0.95225    0.08501    0.16016   1.00
H2       1.19286    0.39391    0.37045   1.00
H2       1.18447    0.43742    0.33906   1.00
H2       1.14323    0.41567    0.36689   1.00
H2       1.03105    0.32747    0.04110   1.00
H2       1.00551    0.36649    0.06893   1.00
H2       1.05293    0.34698    0.08682   1.00
H2       0.79387    0.14605    0.41212   1.00
H2       0.82344    0.11595    0.37793   1.00
H2       0.84423    0.13100    0.42579   1.00
H2       0.95634    0.10163    0.13164   1.00
H2       0.96884    0.05623    0.15870   1.00
H2       0.91990    0.07893    0.16490   1.00
C5       0.67285    -0.13218   0.35061   1.00
H2       0.65760    -0.14745   0.32645   1.00
H2       0.65150    -0.11090   0.36252   1.00
C5       0.68456    -0.16194   0.38216   1.00
C5       0.64978    -0.17123   0.40903   1.00
H2       0.70895    -0.15015   0.40008   1.00
O3       0.79801    0.02000    0.30206   1.00
C4       0.74992    -0.02100   0.24959   1.00
C3c      0.72379    -0.04243   0.27276   1.00
H1       0.70303    -0.02725   0.29102   1.00
C3d      0.77636    -0.04135   0.22558   1.00
C3       0.72433    -0.08354   0.27323   1.00
O2       0.69487    -0.10248   0.29287   1.00
C3       0.77748    -0.08227   0.22654   1.00
H1       0.79919    -0.09657   0.20867   1.00
C2       0.75155    -0.10439   0.25012   1.00
C5       0.83736    0.02121    0.28991   1.00
H2       0.84879    0.05162    0.28824   1.00
H2       0.84104    0.00734    0.26068   1.00
C5       0.86140    -0.00129   0.31982   1.00
H2       0.84929    -0.03137   0.32230   1.00
H2       0.85781    0.01302    0.34881   1.00
C5       0.90473    -0.00262   0.30802   1.00
H2       0.91694    0.02732    0.30523   1.00
H2       0.90849    -0.01811   0.27973   1.00
C5       0.92851    -0.02445   0.33927   1.00
C5       0.78936    -0.01105   0.16776   1.00
C5       0.70681    -0.11070   0.33150   1.00
H2       0.76413    0.00912    0.17088   1.00
H2       0.77984    -0.03712   0.15074   1.00
H2       0.71305    -0.08300   0.34744   1.00
H2       0.73386    -0.12895   0.33261   1.00
H2       0.69371    -0.19030   0.36886   1.00
H2       0.78765    0.05753    0.11871   1.00
H2       0.78799    0.01237    0.09088   1.00
C2       0.75267    0.10395    0.25023   1.00
C3       0.72680    0.08403    0.22511   1.00
O2       0.70959    0.10326    0.19421   1.00
C3       0.77588    0.08174    0.27617   1.00
H1       0.79523    0.09615    0.29647   1.00
C3a      0.72544    0.04287    0.22570   1.00
H1       0.70713    0.02798    0.20475   1.00
C3b      0.77536    0.04078    0.27582   1.00
C4       0.75008    0.02100    0.25041   1.00
O3       0.80463    -0.02167   0.20449   1.00
C5       0.67059    0.11280    0.20331   1.00
H2       0.65310    0.08609    0.20986   1.00
C5       0.65352    0.13326    0.16769   1.00
H2       0.66916    0.13274    0.22897   1.00
H2       0.64530    0.11068    0.14581   1.00
H2       0.67729    0.15093    0.15429   1.00
C5       0.61820    0.15918    0.17762   1.00
H2       0.59609    0.14176    0.19371   1.00
C5       0.59937    0.17547    0.14023   1.00
H2       0.62702    0.18493    0.19562   1.00
C5       0.82164    0.00983    0.14537   1.00
H2       0.84385    -0.01215   0.13641   1.00
H2       0.83641    0.03048    0.16568   1.00
C5       0.80576    0.03200    0.10967   1.00
C5       0.83984    0.04775    0.08501   1.00
H2       0.62955    -0.19286   0.39391   1.00
H2       0.66094    -0.18447   0.43742   1.00
H2       0.63311    -0.14323   0.41567   1.00
H2       0.95890    -0.03105   0.32747   1.00
H2       0.93107    -0.00551   0.36649   1.00
H2       0.91318    -0.05293   0.34698   1.00
H2       0.58788    0.20613    0.14605   1.00
H2       0.62207    0.17656    0.11595   1.00
H2       0.57421    0.15577    0.13100   1.00
H2       0.86836    0.04366    0.10163   1.00
H2       0.84130    0.03116    0.05623   1.00
H2       0.83510    0.08010    0.07893   1.00
C5       0.85061    0.17285    -0.13218   1.00
H2       0.82645    0.15760    -0.14745   1.00
H2       0.86252    0.15150    -0.11090   1.00
C5       0.88216    0.18456    -0.16194   1.00
C5       0.90903    0.14978    -0.17123   1.00
H2       0.90008    0.20895    -0.15015   1.00
O3       0.80206    0.29801    0.02000   1.00
C4       0.74959    0.24992    -0.02100   1.00
C3c      0.77276    0.22379    -0.04243   1.00
H1       0.79102    0.20303    -0.02725   1.00
C3d      0.72558    0.27636    -0.04135   1.00
C3       0.77323    0.22433    -0.08354   1.00
O2       0.79287    0.19487    -0.10248   1.00
C3       0.72654    0.27748    -0.08227   1.00
H1       0.70867    0.29919    -0.09657   1.00
C2       0.75012    0.25155    -0.10439   1.00
C5       0.78991    0.33736    0.02121   1.00
H2       0.78824    0.34879    0.05162   1.00
H2       0.76068    0.34104    0.00734   1.00
C5       0.81982    0.36140    -0.00129   1.00
H2       0.82230    0.34929    -0.03137   1.00
H2       0.84881    0.35781    0.01302   1.00
C5       0.80802    0.40473    -0.00262   1.00
H2       0.80523    0.41694    0.02732   1.00
H2       0.77973    0.40849    -0.01811   1.00
C5       0.83927    0.42851    -0.02445   1.00
C5       0.66776    0.28936    -0.01105   1.00
C5       0.83150    0.20681    -0.11070   1.00
H2       0.67088    0.26413    0.00912   1.00
H2       0.65074    0.27984    -0.03712   1.00
H2       0.84744    0.21305    -0.08300   1.00
H2       0.83261    0.23386    -0.12895   1.00
H2       0.86886    0.19371    -0.19030   1.00
H2       0.61871    0.28765    0.05753   1.00
H2       0.59088    0.28799    0.01237   1.00
C2       0.75023    0.25267    0.10395   1.00
C3       0.72511    0.22680    0.08403   1.00
O2       0.69421    0.20959    0.10326   1.00
C3       0.77617    0.27588    0.08174   1.00
H1       0.79647    0.29523    0.09615   1.00
C3a      0.72570    0.22544    0.04287   1.00
H1       0.70475    0.20713    0.02798   1.00
C3b      0.77582    0.27536    0.04078   1.00
C4       0.75041    0.25008    0.02100   1.00
O3       0.70449    0.30463    -0.02167   1.00
C5       0.70331    0.17059    0.11280   1.00
H2       0.70986    0.15310    0.08609   1.00
C5       0.66769    0.15352    0.13326   1.00
H2       0.72897    0.16916    0.13274   1.00
H2       0.64581    0.14530    0.11068   1.00
H2       0.65429    0.17729    0.15093   1.00
C5       0.67762    0.11820    0.15918   1.00
H2       0.69371    0.09609    0.14176   1.00
C5       0.64023    0.09937    0.17547   1.00
H2       0.69562    0.12702    0.18493   1.00
C5       0.64537    0.32164    0.00983   1.00
H2       0.63641    0.34385    -0.01215   1.00
H2       0.66568    0.33641    0.03048   1.00
C5       0.60967    0.30576    0.03200   1.00
C5       0.58501    0.33984    0.04775   1.00
H2       0.89391    0.12955    -0.19286   1.00
H2       0.93742    0.16094    -0.18447   1.00
H2       0.91567    0.13311    -0.14323   1.00
H2       0.82747    0.45890    -0.03105   1.00
H2       0.86649    0.43107    -0.00551   1.00
H2       0.84698    0.41318    -0.05293   1.00
H2       0.64605    0.08788    0.20613   1.00
H2       0.61595    0.12207    0.17656   1.00
H2       0.63100    0.07421    0.15577   1.00
H2       0.60163    0.36836    0.04366   1.00
H2       0.55623    0.34130    0.03116   1.00
H2       0.57893    0.33510    0.08010   1.00
C5       1.01561    0.99215    1.29718   1.00
H2       0.99145    1.00740    1.31245   1.00
H2       1.02752    1.01350    1.27590   1.00
C5       1.04716    0.98044    1.32694   1.00
C5       1.07403    1.01522    1.33623   1.00
H2       1.06508    0.95605    1.31515   1.00
O3       0.96706    0.86699    1.14500   1.00
C4       0.91459    0.91508    1.18600   1.00
C3c      0.93776    0.94121    1.20743   1.00
H1       0.95602    0.96197    1.19225   1.00
C3d      0.89058    0.88864    1.20635   1.00
C3       0.93823    0.94067    1.24854   1.00
O2       0.95787    0.97013    1.26748   1.00
C3       0.89154    0.88752    1.24727   1.00
H1       0.87367    0.86581    1.26157   1.00
C2       0.91512    0.91345    1.26939   1.00
C5       0.95491    0.82764    1.14379   1.00
H2       0.95324    0.81621    1.11338   1.00
H2       0.92568    0.82396    1.15766   1.00
C5       0.98482    0.80360    1.16629   1.00
H2       0.98730    0.81571    1.19637   1.00
H2       1.01381    0.80719    1.15198   1.00
C5       0.97302    0.76027    1.16762   1.00
H2       0.97023    0.74806    1.13768   1.00
H2       0.94473    0.75651    1.18311   1.00
C5       1.00427    0.73649    1.18945   1.00
C5       0.83276    0.87564    1.17605   1.00
C5       0.99650    0.95819    1.27570   1.00
H2       0.83588    0.90087    1.15588   1.00
H2       0.81574    0.88516    1.20212   1.00
H2       1.01244    0.95195    1.24800   1.00
H2       0.99761    0.93114    1.29395   1.00
H2       1.03386    0.97129    1.35530   1.00
H2       0.78371    0.87735    1.10747   1.00
H2       0.75588    0.87701    1.15263   1.00
C2       0.91523    0.91233    1.06105   1.00
C3       0.89011    0.93820    1.08097   1.00
O2       0.85921    0.95541    1.06174   1.00
C3       0.94117    0.88912    1.08326   1.00
H1       0.96147    0.86977    1.06885   1.00
C3a      0.89070    0.93956    1.12213   1.00
H1       0.86975    0.95787    1.13702   1.00
C3b      0.94082    0.88964    1.12422   1.00
C4       0.91541    0.91492    1.14400   1.00
O3       0.86949    0.86037    1.18667   1.00
C5       0.86831    0.99441    1.05220   1.00
H2       0.87486    1.01190    1.07891   1.00
C5       0.83269    1.01148    1.03174   1.00
H2       0.89397    0.99584    1.03226   1.00
H2       0.81081    1.01970    1.05432   1.00
H2       0.81929    0.98771    1.01407   1.00
C5       0.84262    1.04680    1.00582   1.00
H2       0.85871    1.06891    1.02324   1.00
C5       0.80523    1.06563    0.98953   1.00
H2       0.86062    1.03798    0.98007   1.00
C5       0.81037    0.84336    1.15517   1.00
H2       0.80141    0.82115    1.17715   1.00
H2       0.83068    0.82859    1.13452   1.00
C5       0.77467    0.85924    1.13300   1.00
C5       0.75001    0.82516    1.11725   1.00
H2       1.05891    1.03545    1.35786   1.00
H2       1.10242    1.00406    1.34947   1.00
H2       1.08067    1.03189    1.30823   1.00
H2       0.99247    0.70610    1.19605   1.00
H2       1.03149    0.73393    1.17051   1.00
H2       1.01198    0.75182    1.21793   1.00
H2       0.81105    1.07712    0.95887   1.00
H2       0.78095    1.04293    0.98844   1.00
H2       0.79600    1.09079    1.00923   1.00
H2       0.76663    0.79664    1.12134   1.00
H2       0.72123    0.82370    1.13384   1.00
H2       0.74393    0.82990    1.08490   1.00
C5       0.99215    1.29718    1.01561   1.00
H2       1.00740    1.31245    0.99145   1.00
H2       1.01350    1.27590    1.02752   1.00
C5       0.98044    1.32694    1.04716   1.00
C5       1.01522    1.33623    1.07403   1.00
H2       0.95605    1.31515    1.06508   1.00
O3       0.86699    1.14500    0.96706   1.00
C4       0.91508    1.18600    0.91459   1.00
C3c      0.94121    1.20743    0.93776   1.00
H1       0.96197    1.19225    0.95602   1.00
C3d      0.88864    1.20635    0.89058   1.00
C3       0.94067    1.24854    0.93823   1.00
O2       0.97013    1.26748    0.95787   1.00
C3       0.88752    1.24727    0.89154   1.00
H1       0.86581    1.26157    0.87367   1.00
C2       0.91345    1.26939    0.91512   1.00
C5       0.82764    1.14379    0.95491   1.00
H2       0.81621    1.11338    0.95324   1.00
H2       0.82396    1.15766    0.92568   1.00
C5       0.80360    1.16629    0.98482   1.00
H2       0.81571    1.19637    0.98730   1.00
H2       0.80719    1.15198    1.01381   1.00
C5       0.76027    1.16762    0.97302   1.00
H2       0.74806    1.13768    0.97023   1.00
H2       0.75651    1.18311    0.94473   1.00
C5       0.73649    1.18945    1.00427   1.00
C5       0.87564    1.17605    0.83276   1.00
C5       0.95819    1.27570    0.99650   1.00
H2       0.90087    1.15588    0.83588   1.00
H2       0.88516    1.20212    0.81574   1.00
H2       0.95195    1.24800    1.01244   1.00
H2       0.93114    1.29395    0.99761   1.00
H2       0.97129    1.35530    1.03386   1.00
H2       0.87735    1.10747    0.78371   1.00
H2       0.87701    1.15263    0.75588   1.00
C2       0.91233    1.06105    0.91523   1.00
C3       0.93820    1.08097    0.89011   1.00
O2       0.95541    1.06174    0.85921   1.00
C3       0.88912    1.08326    0.94117   1.00
H1       0.86977    1.06885    0.96147   1.00
C3a      0.93956    1.12213    0.89070   1.00
H1       0.95787    1.13702    0.86975   1.00
C3b      0.88964    1.12422    0.94082   1.00
C4       0.91492    1.14400    0.91541   1.00
O3       0.86037    1.18667    0.86949   1.00
C5       0.99441    1.05220    0.86831   1.00
H2       1.01190    1.07891    0.87486   1.00
C5       1.01148    1.03174    0.83269   1.00
H2       0.99584    1.03226    0.89397   1.00
H2       1.01970    1.05432    0.81081   1.00
H2       0.98771    1.01407    0.81929   1.00
C5       1.04680    1.00582    0.84262   1.00
H2       1.06891    1.02324    0.85871   1.00
C5       1.06563    0.98953    0.80523   1.00
H2       1.03798    0.98007    0.86062   1.00
C5       0.84336    1.15517    0.81037   1.00
H2       0.82115    1.17715    0.80141   1.00
H2       0.82859    1.13452    0.83068   1.00
C5       0.85924    1.13300    0.77467   1.00
C5       0.82516    1.11725    0.75001   1.00
H2       1.03545    1.35786    1.05891   1.00
H2       1.00406    1.34947    1.10242   1.00
H2       1.03189    1.30823    1.08067   1.00
H2       0.70610    1.19605    0.99247   1.00
H2       0.73393    1.17051    1.03149   1.00
H2       0.75182    1.21793    1.01198   1.00
H2       1.07712    0.95887    0.81105   1.00
H2       1.04293    0.98844    0.78095   1.00
H2       1.09079    1.00923    0.79600   1.00
H2       0.79664    1.12134    0.76663   1.00
H2       0.82370    1.13384    0.72123   1.00
H2       0.82990    1.08490    0.74393   1.00
C5       0.53282    1.01561    0.83785   1.00
H2       0.51755    0.99145    0.82260   1.00
H2       0.55410    1.02752    0.81650   1.00
C5       0.50306    1.04716    0.84956   1.00
C5       0.49377    1.07403    0.81478   1.00
H2       0.51485    1.06508    0.87395   1.00
O3       0.68500    0.96706    0.96301   1.00
C4       0.64400    0.91459    0.91492   1.00
C3c      0.62257    0.93776    0.88879   1.00
H1       0.63775    0.95602    0.86803   1.00
C3d      0.62365    0.89058    0.94136   1.00
C3       0.58146    0.93823    0.88933   1.00
O2       0.56252    0.95787    0.85987   1.00
C3       0.58273    0.89154    0.94248   1.00
H1       0.56843    0.87367    0.96419   1.00
C2       0.56061    0.91512    0.91655   1.00
C5       0.68621    0.95491    1.00236   1.00
H2       0.71662    0.95324    1.01379   1.00
H2       0.67234    0.92568    1.00604   1.00
C5       0.66371    0.98482    1.02640   1.00
H2       0.63363    0.98730    1.01429   1.00
H2       0.67802    1.01381    1.02281   1.00
C5       0.66238    0.97302    1.06973   1.00
H2       0.69232    0.97023    1.08194   1.00
H2       0.64689    0.94473    1.07349   1.00
C5       0.64055    1.00427    1.09351   1.00
C5       0.65395    0.83276    0.95436   1.00
C5       0.55430    0.99650    0.87181   1.00
H2       0.67412    0.83588    0.92913   1.00
H2       0.62788    0.81574    0.94484   1.00
H2       0.58200    1.01244    0.87805   1.00
H2       0.53605    0.99761    0.89886   1.00
H2       0.47470    1.03386    0.85871   1.00
H2       0.72253    0.78371    0.95265   1.00
H2       0.67737    0.75588    0.95299   1.00
C2       0.76895    0.91523    0.91767   1.00
C3       0.74903    0.89011    0.89180   1.00
O2       0.76826    0.85921    0.87459   1.00
C3       0.74674    0.94117    0.94088   1.00
H1       0.76115    0.96147    0.96023   1.00
C3a      0.70787    0.89070    0.89044   1.00
H1       0.69298    0.86975    0.87213   1.00
C3b      0.70578    0.94082    0.94036   1.00
C4       0.68600    0.91541    0.91508   1.00
O3       0.64333    0.86949    0.96963   1.00
C5       0.77780    0.86831    0.83559   1.00
H2       0.75109    0.87486    0.81810   1.00
C5       0.79826    0.83269    0.81852   1.00
H2       0.79774    0.89397    0.83416   1.00
H2       0.77568    0.81081    0.81030   1.00
H2       0.81593    0.81929    0.84229   1.00
C5       0.82418    0.84262    0.78320   1.00
H2       0.80676    0.85871    0.76109   1.00
C5       0.84047    0.80523    0.76437   1.00
H2       0.84993    0.86062    0.79202   1.00
C5       0.67483    0.81037    0.98664   1.00
H2       0.65285    0.80141    1.00885   1.00
H2       0.69548    0.83068    1.00141   1.00
C5       0.69700    0.77467    0.97076   1.00
C5       0.71275    0.75001    1.00484   1.00
H2       0.47214    1.05891    0.79455   1.00
H2       0.48053    1.10242    0.82594   1.00
H2       0.52177    1.08067    0.79811   1.00
H2       0.63395    0.99247    1.12390   1.00
H2       0.65949    1.03149    1.09607   1.00
H2       0.61207    1.01198    1.07818   1.00
H2       0.87113    0.81105    0.75288   1.00
H2       0.84156    0.78095    0.78707   1.00
H2       0.82077    0.79600    0.73921   1.00
H2       0.70866    0.76663    1.03336   1.00
H2       0.69616    0.72123    1.00630   1.00
H2       0.74510    0.74393    1.00010   1.00
C5       1.29718    1.01561    0.99215   1.00
H2       1.31245    0.99145    1.00740   1.00
H2       1.27590    1.02752    1.01350   1.00
C5       1.32694    1.04716    0.98044   1.00
C5       1.33623    1.07403    1.01522   1.00
H2       1.31515    1.06508    0.95605   1.00
O3       1.14500    0.96706    0.86699   1.00
C4       1.18600    0.91459    0.91508   1.00
C3c      1.20743    0.93776    0.94121   1.00
H1       1.19225    0.95602    0.96197   1.00
C3d      1.20635    0.89058    0.88864   1.00
C3       1.24854    0.93823    0.94067   1.00
O2       1.26748    0.95787    0.97013   1.00
C3       1.24727    0.89154    0.88752   1.00
H1       1.26157    0.87367    0.86581   1.00
C2       1.26939    0.91512    0.91345   1.00
C5       1.14379    0.95491    0.82764   1.00
H2       1.11338    0.95324    0.81621   1.00
H2       1.15766    0.92568    0.82396   1.00
C5       1.16629    0.98482    0.80360   1.00
H2       1.19637    0.98730    0.81571   1.00
H2       1.15198    1.01381    0.80719   1.00
C5       1.16762    0.97302    0.76027   1.00
H2       1.13768    0.97023    0.74806   1.00
H2       1.18311    0.94473    0.75651   1.00
C5       1.18945    1.00427    0.73649   1.00
C5       1.17605    0.83276    0.87564   1.00
C5       1.27570    0.99650    0.95819   1.00
H2       1.15588    0.83588    0.90087   1.00
H2       1.20212    0.81574    0.88516   1.00
H2       1.24800    1.01244    0.95195   1.00
H2       1.29395    0.99761    0.93114   1.00
H2       1.35530    1.03386    0.97129   1.00
H2       1.10747    0.78371    0.87735   1.00
H2       1.15263    0.75588    0.87701   1.00
C2       1.06105    0.91523    0.91233   1.00
C3       1.08097    0.89011    0.93820   1.00
O2       1.06174    0.85921    0.95541   1.00
C3       1.08326    0.94117    0.88912   1.00
H1       1.06885    0.96147    0.86977   1.00
C3a      1.12213    0.89070    0.93956   1.00
H1       1.13702    0.86975    0.95787   1.00
C3b      1.12422    0.94082    0.88964   1.00
C4       1.14400    0.91541    0.91492   1.00
O3       1.18667    0.86949    0.86037   1.00
C5       1.05220    0.86831    0.99441   1.00
H2       1.07891    0.87486    1.01190   1.00
C5       1.03174    0.83269    1.01148   1.00
H2       1.03226    0.89397    0.99584   1.00
H2       1.05432    0.81081    1.01970   1.00
H2       1.01407    0.81929    0.98771   1.00
C5       1.00582    0.84262    1.04680   1.00
H2       1.02324    0.85871    1.06891   1.00
C5       0.98953    0.80523    1.06563   1.00
H2       0.98007    0.86062    1.03798   1.00
C5       1.15517    0.81037    0.84336   1.00
H2       1.17715    0.80141    0.82115   1.00
H2       1.13452    0.83068    0.82859   1.00
C5       1.13300    0.77467    0.85924   1.00
C5       1.11725    0.75001    0.82516   1.00
H2       1.35786    1.05891    1.03545   1.00
H2       1.34947    1.10242    1.00406   1.00
H2       1.30823    1.08067    1.03189   1.00
H2       1.19605    0.99247    0.70610   1.00
H2       1.17051    1.03149    0.73393   1.00
H2       1.21793    1.01198    0.75182   1.00
H2       0.95887    0.81105    1.07712   1.00
H2       0.98844    0.78095    1.04293   1.00
H2       1.00923    0.79600    1.09079   1.00
H2       1.12134    0.76663    0.79664   1.00
H2       1.13384    0.72123    0.82370   1.00
H2       1.08490    0.74393    0.82990   1.00
C5       0.83785    0.53282    1.01561   1.00
H2       0.82260    0.51755    0.99145   1.00
H2       0.81650    0.55410    1.02752   1.00
C5       0.84956    0.50306    1.04716   1.00
C5       0.81478    0.49377    1.07403   1.00
H2       0.87395    0.51485    1.06508   1.00
O3       0.96301    0.68500    0.96706   1.00
C4       0.91492    0.64400    0.91459   1.00
C3c      0.88879    0.62257    0.93776   1.00
H1       0.86803    0.63775    0.95602   1.00
C3d      0.94136    0.62365    0.89058   1.00
C3       0.88933    0.58146    0.93823   1.00
O2       0.85987    0.56252    0.95787   1.00
C3       0.94248    0.58273    0.89154   1.00
H1       0.96419    0.56843    0.87367   1.00
C2       0.91655    0.56061    0.91512   1.00
C5       1.00236    0.68621    0.95491   1.00
H2       1.01379    0.71662    0.95324   1.00
H2       1.00604    0.67234    0.92568   1.00
C5       1.02640    0.66371    0.98482   1.00
H2       1.01429    0.63363    0.98730   1.00
H2       1.02281    0.67802    1.01381   1.00
C5       1.06973    0.66238    0.97302   1.00
H2       1.08194    0.69232    0.97023   1.00
H2       1.07349    0.64689    0.94473   1.00
C5       1.09351    0.64055    1.00427   1.00
C5       0.95436    0.65395    0.83276   1.00
C5       0.87181    0.55430    0.99650   1.00
H2       0.92913    0.67412    0.83588   1.00
H2       0.94484    0.62788    0.81574   1.00
H2       0.87805    0.58200    1.01244   1.00
H2       0.89886    0.53605    0.99761   1.00
H2       0.85871    0.47470    1.03386   1.00
H2       0.95265    0.72253    0.78371   1.00
H2       0.95299    0.67737    0.75588   1.00
C2       0.91767    0.76895    0.91523   1.00
C3       0.89180    0.74903    0.89011   1.00
O2       0.87459    0.76826    0.85921   1.00
C3       0.94088    0.74674    0.94117   1.00
H1       0.96023    0.76115    0.96147   1.00
C3a      0.89044    0.70787    0.89070   1.00
H1       0.87213    0.69298    0.86975   1.00
C3b      0.94036    0.70578    0.94082   1.00
C4       0.91508    0.68600    0.91541   1.00
O3       0.96963    0.64333    0.86949   1.00
C5       0.83559    0.77780    0.86831   1.00
H2       0.81810    0.75109    0.87486   1.00
C5       0.81852    0.79826    0.83269   1.00
H2       0.83416    0.79774    0.89397   1.00
H2       0.81030    0.77568    0.81081   1.00
H2       0.84229    0.81593    0.81929   1.00
C5       0.78320    0.82418    0.84262   1.00
H2       0.76109    0.80676    0.85871   1.00
C5       0.76437    0.84047    0.80523   1.00
H2       0.79202    0.84993    0.86062   1.00
C5       0.98664    0.67483    0.81037   1.00
H2       1.00885    0.65285    0.80141   1.00
H2       1.00141    0.69548    0.83068   1.00
C5       0.97076    0.69700    0.77467   1.00
C5       1.00484    0.71275    0.75001   1.00
H2       0.79455    0.47214    1.05891   1.00
H2       0.82594    0.48053    1.10242   1.00
H2       0.79811    0.52177    1.08067   1.00
H2       1.12390    0.63395    0.99247   1.00
H2       1.09607    0.65949    1.03149   1.00
H2       1.07818    0.61207    1.01198   1.00
H2       0.75288    0.87113    0.81105   1.00
H2       0.78707    0.84156    0.78095   1.00
H2       0.73921    0.82077    0.79600   1.00
H2       1.03336    0.70866    0.76663   1.00
H2       1.00630    0.69616    0.72123   1.00
H2       1.00010    0.74510    0.74393   1.00
C5       1.01561    0.83785    0.53282   1.00
H2       0.99145    0.82260    0.51755   1.00
H2       1.02752    0.81650    0.55410   1.00
C5       1.04716    0.84956    0.50306   1.00
C5       1.07403    0.81478    0.49377   1.00
H2       1.06508    0.87395    0.51485   1.00
O3       0.96706    0.96301    0.68500   1.00
C4       0.91459    0.91492    0.64400   1.00
C3c      0.93776    0.88879    0.62257   1.00
H1       0.95602    0.86803    0.63775   1.00
C3d      0.89058    0.94136    0.62365   1.00
C3       0.93823    0.88933    0.58146   1.00
O2       0.95787    0.85987    0.56252   1.00
C3       0.89154    0.94248    0.58273   1.00
H1       0.87367    0.96419    0.56843   1.00
C2       0.91512    0.91655    0.56061   1.00
C5       0.95491    1.00236    0.68621   1.00
H2       0.95324    1.01379    0.71662   1.00
H2       0.92568    1.00604    0.67234   1.00
C5       0.98482    1.02640    0.66371   1.00
H2       0.98730    1.01429    0.63363   1.00
H2       1.01381    1.02281    0.67802   1.00
C5       0.97302    1.06973    0.66238   1.00
H2       0.97023    1.08194    0.69232   1.00
H2       0.94473    1.07349    0.64689   1.00
C5       1.00427    1.09351    0.64055   1.00
C5       0.83276    0.95436    0.65395   1.00
C5       0.99650    0.87181    0.55430   1.00
H2       0.83588    0.92913    0.67412   1.00
H2       0.81574    0.94484    0.62788   1.00
H2       1.01244    0.87805    0.58200   1.00
H2       0.99761    0.89886    0.53605   1.00
H2       1.03386    0.85871    0.47470   1.00
H2       0.78371    0.95265    0.72253   1.00
H2       0.75588    0.95299    0.67737   1.00
C2       0.91523    0.91767    0.76895   1.00
C3       0.89011    0.89180    0.74903   1.00
O2       0.85921    0.87459    0.76826   1.00
C3       0.94117    0.94088    0.74674   1.00
H1       0.96147    0.96023    0.76115   1.00
C3a      0.89070    0.89044    0.70787   1.00
H1       0.86975    0.87213    0.69298   1.00
C3b      0.94082    0.94036    0.70578   1.00
C4       0.91541    0.91508    0.68600   1.00
O3       0.86949    0.96963    0.64333   1.00
C5       0.86831    0.83559    0.77780   1.00
H2       0.87486    0.81810    0.75109   1.00
C5       0.83269    0.81852    0.79826   1.00
H2       0.89397    0.83416    0.79774   1.00
H2       0.81081    0.81030    0.77568   1.00
H2       0.81929    0.84229    0.81593   1.00
C5       0.84262    0.78320    0.82418   1.00
H2       0.85871    0.76109    0.80676   1.00
C5       0.80523    0.76437    0.84047   1.00
H2       0.86062    0.79202    0.84993   1.00
C5       0.81037    0.98664    0.67483   1.00
H2       0.80141    1.00885    0.65285   1.00
H2       0.83068    1.00141    0.69548   1.00
C5       0.77467    0.97076    0.69700   1.00
C5       0.75001    1.00484    0.71275   1.00
H2       1.05891    0.79455    0.47214   1.00
H2       1.10242    0.82594    0.48053   1.00
H2       1.08067    0.79811    0.52177   1.00
H2       0.99247    1.12390    0.63395   1.00
H2       1.03149    1.09607    0.65949   1.00
H2       1.01198    1.07818    0.61207   1.00
H2       0.81105    0.75288    0.87113   1.00
H2       0.78095    0.78707    0.84156   1.00
H2       0.79600    0.73921    0.82077   1.00
H2       0.76663    1.03336    0.70866   1.00
H2       0.72123    1.00630    0.69616   1.00
H2       0.74393    1.00010    0.74510   1.00
C5       0.51561    0.49215    1.29718   1.00
H2       0.49145    0.50740    1.31245   1.00
H2       0.52752    0.51350    1.27590   1.00
C5       0.54716    0.48044    1.32694   1.00
C5       0.57403    0.51522    1.33623   1.00
H2       0.56508    0.45605    1.31515   1.00
O3       0.46706    0.36699    1.14500   1.00
C4       0.41459    0.41508    1.18600   1.00
C3c      0.43776    0.44121    1.20743   1.00
H1       0.45602    0.46197    1.19225   1.00
C3d      0.39058    0.38864    1.20635   1.00
C3       0.43823    0.44067    1.24854   1.00
O2       0.45787    0.47013    1.26748   1.00
C3       0.39154    0.38752    1.24727   1.00
H1       0.37367    0.36581    1.26157   1.00
C2       0.41512    0.41345    1.26939   1.00
C5       0.45491    0.32764    1.14379   1.00
H2       0.45324    0.31621    1.11338   1.00
H2       0.42568    0.32396    1.15766   1.00
C5       0.48482    0.30360    1.16629   1.00
H2       0.48730    0.31571    1.19637   1.00
H2       0.51381    0.30719    1.15198   1.00
C5       0.47302    0.26027    1.16762   1.00
H2       0.47023    0.24806    1.13768   1.00
H2       0.44473    0.25651    1.18311   1.00
C5       0.50427    0.23649    1.18945   1.00
C5       0.33276    0.37564    1.17605   1.00
C5       0.49650    0.45819    1.27570   1.00
H2       0.33588    0.40087    1.15588   1.00
H2       0.31574    0.38516    1.20212   1.00
H2       0.51244    0.45195    1.24800   1.00
H2       0.49761    0.43114    1.29395   1.00
H2       0.53386    0.47129    1.35530   1.00
H2       0.28371    0.37735    1.10747   1.00
H2       0.25588    0.37701    1.15263   1.00
C2       0.41523    0.41233    1.06105   1.00
C3       0.39011    0.43820    1.08097   1.00
O2       0.35921    0.45541    1.06174   1.00
C3       0.44117    0.38912    1.08326   1.00
H1       0.46147    0.36977    1.06885   1.00
C3a      0.39070    0.43956    1.12213   1.00
H1       0.36975    0.45787    1.13702   1.00
C3b      0.44082    0.38964    1.12422   1.00
C4       0.41541    0.41492    1.14400   1.00
O3       0.36949    0.36037    1.18667   1.00
C5       0.36831    0.49441    1.05220   1.00
H2       0.37486    0.51190    1.07891   1.00
C5       0.33269    0.51148    1.03174   1.00
H2       0.39397    0.49584    1.03226   1.00
H2       0.31081    0.51970    1.05432   1.00
H2       0.31929    0.48771    1.01407   1.00
C5       0.34262    0.54680    1.00582   1.00
H2       0.35871    0.56891    1.02324   1.00
C5       0.30523    0.56563    0.98953   1.00
H2       0.36062    0.53798    0.98007   1.00
C5       0.31037    0.34336    1.15517   1.00
H2       0.30141    0.32115    1.17715   1.00
H2       0.33068    0.32859    1.13452   1.00
C5       0.27467    0.35924    1.13300   1.00
C5       0.25001    0.32516    1.11725   1.00
H2       0.55891    0.53545    1.35786   1.00
H2       0.60242    0.50406    1.34947   1.00
H2       0.58067    0.53189    1.30823   1.00
H2       0.49247    0.20610    1.19605   1.00
H2       0.53149    0.23393    1.17051   1.00
H2       0.51198    0.25182    1.21793   1.00
H2       0.31105    0.57712    0.95887   1.00
H2       0.28095    0.54293    0.98844   1.00
H2       0.29600    0.59079    1.00923   1.00
H2       0.26663    0.29664    1.12134   1.00
H2       0.22123    0.32370    1.13384   1.00
H2       0.24393    0.32990    1.08490   1.00
C5       0.49215    0.79718    1.01561   1.00
H2       0.50740    0.81245    0.99145   1.00
H2       0.51350    0.77590    1.02752   1.00
C5       0.48044    0.82694    1.04716   1.00
C5       0.51522    0.83623    1.07403   1.00
H2       0.45605    0.81515    1.06508   1.00
O3       0.36699    0.64500    0.96706   1.00
C4       0.41508    0.68600    0.91459   1.00
C3c      0.44121    0.70743    0.93776   1.00
H1       0.46197    0.69225    0.95602   1.00
C3d      0.38864    0.70635    0.89058   1.00
C3       0.44067    0.74854    0.93823   1.00
O2       0.47013    0.76748    0.95787   1.00
C3       0.38752    0.74727    0.89154   1.00
H1       0.36581    0.76157    0.87367   1.00
C2       0.41345    0.76939    0.91512   1.00
C5       0.32764    0.64379    0.95491   1.00
H2       0.31621    0.61338    0.95324   1.00
H2       0.32396    0.65766    0.92568   1.00
C5       0.30360    0.66629    0.98482   1.00
H2       0.31571    0.69637    0.98730   1.00
H2       0.30719    0.65198    1.01381   1.00
C5       0.26027    0.66762    0.97302   1.00
H2       0.24806    0.63768    0.97023   1.00
H2       0.25651    0.68311    0.94473   1.00
C5       0.23649    0.68945    1.00427   1.00
C5       0.37564    0.67605    0.83276   1.00
C5       0.45819    0.77570    0.99650   1.00
H2       0.40087    0.65588    0.83588   1.00
H2       0.38516    0.70212    0.81574   1.00
H2       0.45195    0.74800    1.01244   1.00
H2       0.43114    0.79395    0.99761   1.00
H2       0.47129    0.85530    1.03386   1.00
H2       0.37735    0.60747    0.78371   1.00
H2       0.37701    0.65263    0.75588   1.00
C2       0.41233    0.56105    0.91523   1.00
C3       0.43820    0.58097    0.89011   1.00
O2       0.45541    0.56174    0.85921   1.00
C3       0.38912    0.58326    0.94117   1.00
H1       0.36977    0.56885    0.96147   1.00
C3a      0.43956    0.62213    0.89070   1.00
H1       0.45787    0.63702    0.86975   1.00
C3b      0.38964    0.62422    0.94082   1.00
C4       0.41492    0.64400    0.91541   1.00
O3       0.36037    0.68667    0.86949   1.00
C5       0.49441    0.55220    0.86831   1.00
H2       0.51190    0.57891    0.87486   1.00
C5       0.51148    0.53174    0.83269   1.00
H2       0.49584    0.53226    0.89397   1.00
H2       0.51970    0.55432    0.81081   1.00
H2       0.48771    0.51407    0.81929   1.00
C5       0.54680    0.50582    0.84262   1.00
H2       0.56891    0.52324    0.85871   1.00
C5       0.56563    0.48953    0.80523   1.00
H2       0.53798    0.48007    0.86062   1.00
C5       0.34336    0.65517    0.81037   1.00
H2       0.32115    0.67715    0.80141   1.00
H2       0.32859    0.63452    0.83068   1.00
C5       0.35924    0.63300    0.77467   1.00
C5       0.32516    0.61725    0.75001   1.00
H2       0.53545    0.85786    1.05891   1.00
H2       0.50406    0.84947    1.10242   1.00
H2       0.53189    0.80823    1.08067   1.00
H2       0.20610    0.69605    0.99247   1.00
H2       0.23393    0.67051    1.03149   1.00
H2       0.25182    0.71793    1.01198   1.00
H2       0.57712    0.45887    0.81105   1.00
H2       0.54293    0.48844    0.78095   1.00
H2       0.59079    0.50923    0.79600   1.00
H2       0.29664    0.62134    0.76663   1.00
H2       0.32370    0.63384    0.72123   1.00
H2       0.32990    0.58490    0.74393   1.00
C5       0.03282    0.51561    0.83785   1.00
H2       0.01755    0.49145    0.82260   1.00
H2       0.05410    0.52752    0.81650   1.00
C5       0.00306    0.54716    0.84956   1.00
C5       -0.00623   0.57403    0.81478   1.00
H2       0.01485    0.56508    0.87395   1.00
O3       0.18500    0.46706    0.96301   1.00
C4       0.14400    0.41459    0.91492   1.00
C3c      0.12257    0.43776    0.88879   1.00
H1       0.13775    0.45602    0.86803   1.00
C3d      0.12365    0.39058    0.94136   1.00
C3       0.08146    0.43823    0.88933   1.00
O2       0.06252    0.45787    0.85987   1.00
C3       0.08273    0.39154    0.94248   1.00
H1       0.06843    0.37367    0.96419   1.00
C2       0.06061    0.41512    0.91655   1.00
C5       0.18621    0.45491    1.00236   1.00
H2       0.21662    0.45324    1.01379   1.00
H2       0.17234    0.42568    1.00604   1.00
C5       0.16371    0.48482    1.02640   1.00
H2       0.13363    0.48730    1.01429   1.00
H2       0.17802    0.51381    1.02281   1.00
C5       0.16238    0.47302    1.06973   1.00
H2       0.19232    0.47023    1.08194   1.00
H2       0.14689    0.44473    1.07349   1.00
C5       0.14055    0.50427    1.09351   1.00
C5       0.15395    0.33276    0.95436   1.00
C5       0.05430    0.49650    0.87181   1.00
H2       0.17412    0.33588    0.92913   1.00
H2       0.12788    0.31574    0.94484   1.00
H2       0.08200    0.51244    0.87805   1.00
H2       0.03605    0.49761    0.89886   1.00
H2       -0.02530   0.53386    0.85871   1.00
H2       0.22253    0.28371    0.95265   1.00
H2       0.17737    0.25588    0.95299   1.00
C2       0.26895    0.41523    0.91767   1.00
C3       0.24903    0.39011    0.89180   1.00
O2       0.26826    0.35921    0.87459   1.00
C3       0.24674    0.44117    0.94088   1.00
H1       0.26115    0.46147    0.96023   1.00
C3a      0.20787    0.39070    0.89044   1.00
H1       0.19298    0.36975    0.87213   1.00
C3b      0.20578    0.44082    0.94036   1.00
C4       0.18600    0.41541    0.91508   1.00
O3       0.14333    0.36949    0.96963   1.00
C5       0.27780    0.36831    0.83559   1.00
H2       0.25109    0.37486    0.81810   1.00
C5       0.29826    0.33269    0.81852   1.00
H2       0.29774    0.39397    0.83416   1.00
H2       0.27568    0.31081    0.81030   1.00
H2       0.31593    0.31929    0.84229   1.00
C5       0.32418    0.34262    0.78320   1.00
H2       0.30676    0.35871    0.76109   1.00
C5       0.34047    0.30523    0.76437   1.00
H2       0.34993    0.36062    0.79202   1.00
C5       0.17483    0.31037    0.98664   1.00
H2       0.15285    0.30141    1.00885   1.00
H2       0.19548    0.33068    1.00141   1.00
C5       0.19700    0.27467    0.97076   1.00
C5       0.21275    0.25001    1.00484   1.00
H2       -0.02786   0.55891    0.79455   1.00
H2       -0.01947   0.60242    0.82594   1.00
H2       0.02177    0.58067    0.79811   1.00
H2       0.13395    0.49247    1.12390   1.00
H2       0.15949    0.53149    1.09607   1.00
H2       0.11207    0.51198    1.07818   1.00
H2       0.37113    0.31105    0.75288   1.00
H2       0.34156    0.28095    0.78707   1.00
H2       0.32077    0.29600    0.73921   1.00
H2       0.20866    0.26663    1.03336   1.00
H2       0.19616    0.22123    1.00630   1.00
H2       0.24510    0.24393    1.00010   1.00
C5       0.79718    0.51561    0.99215   1.00
H2       0.81245    0.49145    1.00740   1.00
H2       0.77590    0.52752    1.01350   1.00
C5       0.82694    0.54716    0.98044   1.00
C5       0.83623    0.57403    1.01522   1.00
H2       0.81515    0.56508    0.95605   1.00
O3       0.64500    0.46706    0.86699   1.00
C4       0.68600    0.41459    0.91508   1.00
C3c      0.70743    0.43776    0.94121   1.00
H1       0.69225    0.45602    0.96197   1.00
C3d      0.70635    0.39058    0.88864   1.00
C3       0.74854    0.43823    0.94067   1.00
O2       0.76748    0.45787    0.97013   1.00
C3       0.74727    0.39154    0.88752   1.00
H1       0.76157    0.37367    0.86581   1.00
C2       0.76939    0.41512    0.91345   1.00
C5       0.64379    0.45491    0.82764   1.00
H2       0.61338    0.45324    0.81621   1.00
H2       0.65766    0.42568    0.82396   1.00
C5       0.66629    0.48482    0.80360   1.00
H2       0.69637    0.48730    0.81571   1.00
H2       0.65198    0.51381    0.80719   1.00
C5       0.66762    0.47302    0.76027   1.00
H2       0.63768    0.47023    0.74806   1.00
H2       0.68311    0.44473    0.75651   1.00
C5       0.68945    0.50427    0.73649   1.00
C5       0.67605    0.33276    0.87564   1.00
C5       0.77570    0.49650    0.95819   1.00
H2       0.65588    0.33588    0.90087   1.00
H2       0.70212    0.31574    0.88516   1.00
H2       0.74800    0.51244    0.95195   1.00
H2       0.79395    0.49761    0.93114   1.00
H2       0.85530    0.53386    0.97129   1.00
H2       0.60747    0.28371    0.87735   1.00
H2       0.65263    0.25588    0.87701   1.00
C2       0.56105    0.41523    0.91233   1.00
C3       0.58097    0.39011    0.93820   1.00
O2       0.56174    0.35921    0.95541   1.00
C3       0.58326    0.44117    0.88912   1.00
H1       0.56885    0.46147    0.86977   1.00
C3a      0.62213    0.39070    0.93956   1.00
H1       0.63702    0.36975    0.95787   1.00
C3b      0.62422    0.44082    0.88964   1.00
C4       0.64400    0.41541    0.91492   1.00
O3       0.68667    0.36949    0.86037   1.00
C5       0.55220    0.36831    0.99441   1.00
H2       0.57891    0.37486    1.01190   1.00
C5       0.53174    0.33269    1.01148   1.00
H2       0.53226    0.39397    0.99584   1.00
H2       0.55432    0.31081    1.01970   1.00
H2       0.51407    0.31929    0.98771   1.00
C5       0.50582    0.34262    1.04680   1.00
H2       0.52324    0.35871    1.06891   1.00
C5       0.48953    0.30523    1.06563   1.00
H2       0.48007    0.36062    1.03798   1.00
C5       0.65517    0.31037    0.84336   1.00
H2       0.67715    0.30141    0.82115   1.00
H2       0.63452    0.33068    0.82859   1.00
C5       0.63300    0.27467    0.85924   1.00
C5       0.61725    0.25001    0.82516   1.00
H2       0.85786    0.55891    1.03545   1.00
H2       0.84947    0.60242    1.00406   1.00
H2       0.80823    0.58067    1.03189   1.00
H2       0.69605    0.49247    0.70610   1.00
H2       0.67051    0.53149    0.73393   1.00
H2       0.71793    0.51198    0.75182   1.00
H2       0.45887    0.31105    1.07712   1.00
H2       0.48844    0.28095    1.04293   1.00
H2       0.50923    0.29600    1.09079   1.00
H2       0.62134    0.26663    0.79664   1.00
H2       0.63384    0.22123    0.82370   1.00
H2       0.58490    0.24393    0.82990   1.00
C5       0.33785    0.03282    1.01561   1.00
H2       0.32260    0.01755    0.99145   1.00
H2       0.31650    0.05410    1.02752   1.00
C5       0.34956    0.00306    1.04716   1.00
C5       0.31478    -0.00623   1.07403   1.00
H2       0.37395    0.01485    1.06508   1.00
O3       0.46301    0.18500    0.96706   1.00
C4       0.41492    0.14400    0.91459   1.00
C3c      0.38879    0.12257    0.93776   1.00
H1       0.36803    0.13775    0.95602   1.00
C3d      0.44136    0.12365    0.89058   1.00
C3       0.38933    0.08146    0.93823   1.00
O2       0.35987    0.06252    0.95787   1.00
C3       0.44248    0.08273    0.89154   1.00
H1       0.46419    0.06843    0.87367   1.00
C2       0.41655    0.06061    0.91512   1.00
C5       0.50236    0.18621    0.95491   1.00
H2       0.51379    0.21662    0.95324   1.00
H2       0.50604    0.17234    0.92568   1.00
C5       0.52640    0.16371    0.98482   1.00
H2       0.51429    0.13363    0.98730   1.00
H2       0.52281    0.17802    1.01381   1.00
C5       0.56973    0.16238    0.97302   1.00
H2       0.58194    0.19232    0.97023   1.00
H2       0.57349    0.14689    0.94473   1.00
C5       0.59351    0.14055    1.00427   1.00
C5       0.45436    0.15395    0.83276   1.00
C5       0.37181    0.05430    0.99650   1.00
H2       0.42913    0.17412    0.83588   1.00
H2       0.44484    0.12788    0.81574   1.00
H2       0.37805    0.08200    1.01244   1.00
H2       0.39886    0.03605    0.99761   1.00
H2       0.35871    -0.02530   1.03386   1.00
H2       0.45265    0.22253    0.78371   1.00
H2       0.45299    0.17737    0.75588   1.00
C2       0.41767    0.26895    0.91523   1.00
C3       0.39180    0.24903    0.89011   1.00
O2       0.37459    0.26826    0.85921   1.00
C3       0.44088    0.24674    0.94117   1.00
H1       0.46023    0.26115    0.96147   1.00
C3a      0.39044    0.20787    0.89070   1.00
H1       0.37213    0.19298    0.86975   1.00
C3b      0.44036    0.20578    0.94082   1.00
C4       0.41508    0.18600    0.91541   1.00
O3       0.46963    0.14333    0.86949   1.00
C5       0.33559    0.27780    0.86831   1.00
H2       0.31810    0.25109    0.87486   1.00
C5       0.31852    0.29826    0.83269   1.00
H2       0.33416    0.29774    0.89397   1.00
H2       0.31030    0.27568    0.81081   1.00
H2       0.34229    0.31593    0.81929   1.00
C5       0.28320    0.32418    0.84262   1.00
H2       0.26109    0.30676    0.85871   1.00
C5       0.26437    0.34047    0.80523   1.00
H2       0.29202    0.34993    0.86062   1.00
C5       0.48664    0.17483    0.81037   1.00
H2       0.50885    0.15285    0.80141   1.00
H2       0.50141    0.19548    0.83068   1.00
C5       0.47076    0.19700    0.77467   1.00
C5       0.50484    0.21275    0.75001   1.00
H2       0.29455    -0.02786   1.05891   1.00
H2       0.32594    -0.01947   1.10242   1.00
H2       0.29811    0.02177    1.08067   1.00
H2       0.62390    0.13395    0.99247   1.00
H2       0.59607    0.15949    1.03149   1.00
H2       0.57818    0.11207    1.01198   1.00
H2       0.25288    0.37113    0.81105   1.00
H2       0.28707    0.34156    0.78095   1.00
H2       0.23921    0.32077    0.79600   1.00
H2       0.53336    0.20866    0.76663   1.00
H2       0.50630    0.19616    0.72123   1.00
H2       0.50010    0.24510    0.74393   1.00
C5       0.51561    0.33785    0.53282   1.00
H2       0.49145    0.32260    0.51755   1.00
H2       0.52752    0.31650    0.55410   1.00
C5       0.54716    0.34956    0.50306   1.00
C5       0.57403    0.31478    0.49377   1.00
H2       0.56508    0.37395    0.51485   1.00
O3       0.46706    0.46301    0.68500   1.00
C4       0.41459    0.41492    0.64400   1.00
C3c      0.43776    0.38879    0.62257   1.00
H1       0.45602    0.36803    0.63775   1.00
C3d      0.39058    0.44136    0.62365   1.00
C3       0.43823    0.38933    0.58146   1.00
O2       0.45787    0.35987    0.56252   1.00
C3       0.39154    0.44248    0.58273   1.00
H1       0.37367    0.46419    0.56843   1.00
C2       0.41512    0.41655    0.56061   1.00
C5       0.45491    0.50236    0.68621   1.00
H2       0.45324    0.51379    0.71662   1.00
H2       0.42568    0.50604    0.67234   1.00
C5       0.48482    0.52640    0.66371   1.00
H2       0.48730    0.51429    0.63363   1.00
H2       0.51381    0.52281    0.67802   1.00
C5       0.47302    0.56973    0.66238   1.00
H2       0.47023    0.58194    0.69232   1.00
H2       0.44473    0.57349    0.64689   1.00
C5       0.50427    0.59351    0.64055   1.00
C5       0.33276    0.45436    0.65395   1.00
C5       0.49650    0.37181    0.55430   1.00
H2       0.33588    0.42913    0.67412   1.00
H2       0.31574    0.44484    0.62788   1.00
H2       0.51244    0.37805    0.58200   1.00
H2       0.49761    0.39886    0.53605   1.00
H2       0.53386    0.35871    0.47470   1.00
H2       0.28371    0.45265    0.72253   1.00
H2       0.25588    0.45299    0.67737   1.00
C2       0.41523    0.41767    0.76895   1.00
C3       0.39011    0.39180    0.74903   1.00
O2       0.35921    0.37459    0.76826   1.00
C3       0.44117    0.44088    0.74674   1.00
H1       0.46147    0.46023    0.76115   1.00
C3a      0.39070    0.39044    0.70787   1.00
H1       0.36975    0.37213    0.69298   1.00
C3b      0.44082    0.44036    0.70578   1.00
C4       0.41541    0.41508    0.68600   1.00
O3       0.36949    0.46963    0.64333   1.00
C5       0.36831    0.33559    0.77780   1.00
H2       0.37486    0.31810    0.75109   1.00
C5       0.33269    0.31852    0.79826   1.00
H2       0.39397    0.33416    0.79774   1.00
H2       0.31081    0.31030    0.77568   1.00
H2       0.31929    0.34229    0.81593   1.00
C5       0.34262    0.28320    0.82418   1.00
H2       0.35871    0.26109    0.80676   1.00
C5       0.30523    0.26437    0.84047   1.00
H2       0.36062    0.29202    0.84993   1.00
C5       0.31037    0.48664    0.67483   1.00
H2       0.30141    0.50885    0.65285   1.00
H2       0.33068    0.50141    0.69548   1.00
C5       0.27467    0.47076    0.69700   1.00
C5       0.25001    0.50484    0.71275   1.00
H2       0.55891    0.29455    0.47214   1.00
H2       0.60242    0.32594    0.48053   1.00
H2       0.58067    0.29811    0.52177   1.00
H2       0.49247    0.62390    0.63395   1.00
H2       0.53149    0.59607    0.65949   1.00
H2       0.51198    0.57818    0.61207   1.00
H2       0.31105    0.25288    0.87113   1.00
H2       0.28095    0.28707    0.84156   1.00
H2       0.29600    0.23921    0.82077   1.00
H2       0.26663    0.53336    0.70866   1.00
H2       0.22123    0.50630    0.69616   1.00
H2       0.24393    0.50010    0.74510   1.00
C5       0.51561    0.99215    0.79718   1.00
H2       0.49145    1.00740    0.81245   1.00
H2       0.52752    1.01350    0.77590   1.00
C5       0.54716    0.98044    0.82694   1.00
C5       0.57403    1.01522    0.83623   1.00
H2       0.56508    0.95605    0.81515   1.00
O3       0.46706    0.86699    0.64500   1.00
C4       0.41459    0.91508    0.68600   1.00
C3c      0.43776    0.94121    0.70743   1.00
H1       0.45602    0.96197    0.69225   1.00
C3d      0.39058    0.88864    0.70635   1.00
C3       0.43823    0.94067    0.74854   1.00
O2       0.45787    0.97013    0.76748   1.00
C3       0.39154    0.88752    0.74727   1.00
H1       0.37367    0.86581    0.76157   1.00
C2       0.41512    0.91345    0.76939   1.00
C5       0.45491    0.82764    0.64379   1.00
H2       0.45324    0.81621    0.61338   1.00
H2       0.42568    0.82396    0.65766   1.00
C5       0.48482    0.80360    0.66629   1.00
H2       0.48730    0.81571    0.69637   1.00
H2       0.51381    0.80719    0.65198   1.00
C5       0.47302    0.76027    0.66762   1.00
H2       0.47023    0.74806    0.63768   1.00
H2       0.44473    0.75651    0.68311   1.00
C5       0.50427    0.73649    0.68945   1.00
C5       0.33276    0.87564    0.67605   1.00
C5       0.49650    0.95819    0.77570   1.00
H2       0.33588    0.90087    0.65588   1.00
H2       0.31574    0.88516    0.70212   1.00
H2       0.51244    0.95195    0.74800   1.00
H2       0.49761    0.93114    0.79395   1.00
H2       0.53386    0.97129    0.85530   1.00
H2       0.28371    0.87735    0.60747   1.00
H2       0.25588    0.87701    0.65263   1.00
C2       0.41523    0.91233    0.56105   1.00
C3       0.39011    0.93820    0.58097   1.00
O2       0.35921    0.95541    0.56174   1.00
C3       0.44117    0.88912    0.58326   1.00
H1       0.46147    0.86977    0.56885   1.00
C3a      0.39070    0.93956    0.62213   1.00
H1       0.36975    0.95787    0.63702   1.00
C3b      0.44082    0.88964    0.62422   1.00
C4       0.41541    0.91492    0.64400   1.00
O3       0.36949    0.86037    0.68667   1.00
C5       0.36831    0.99441    0.55220   1.00
H2       0.37486    1.01190    0.57891   1.00
C5       0.33269    1.01148    0.53174   1.00
H2       0.39397    0.99584    0.53226   1.00
H2       0.31081    1.01970    0.55432   1.00
H2       0.31929    0.98771    0.51407   1.00
C5       0.34262    1.04680    0.50582   1.00
H2       0.35871    1.06891    0.52324   1.00
C5       0.30523    1.06563    0.48953   1.00
H2       0.36062    1.03798    0.48007   1.00
C5       0.31037    0.84336    0.65517   1.00
H2       0.30141    0.82115    0.67715   1.00
H2       0.33068    0.82859    0.63452   1.00
C5       0.27467    0.85924    0.63300   1.00
C5       0.25001    0.82516    0.61725   1.00
H2       0.55891    1.03545    0.85786   1.00
H2       0.60242    1.00406    0.84947   1.00
H2       0.58067    1.03189    0.80823   1.00
H2       0.49247    0.70610    0.69605   1.00
H2       0.53149    0.73393    0.67051   1.00
H2       0.51198    0.75182    0.71793   1.00
H2       0.31105    1.07712    0.45887   1.00
H2       0.28095    1.04293    0.48844   1.00
H2       0.29600    1.09079    0.50923   1.00
H2       0.26663    0.79664    0.62134   1.00
H2       0.22123    0.82370    0.63384   1.00
H2       0.24393    0.82990    0.58490   1.00
C5       0.49215    1.29718    0.51561   1.00
H2       0.50740    1.31245    0.49145   1.00
H2       0.51350    1.27590    0.52752   1.00
C5       0.48044    1.32694    0.54716   1.00
C5       0.51522    1.33623    0.57403   1.00
H2       0.45605    1.31515    0.56508   1.00
O3       0.36699    1.14500    0.46706   1.00
C4       0.41508    1.18600    0.41459   1.00
C3c      0.44121    1.20743    0.43776   1.00
H1       0.46197    1.19225    0.45602   1.00
C3d      0.38864    1.20635    0.39058   1.00
C3       0.44067    1.24854    0.43823   1.00
O2       0.47013    1.26748    0.45787   1.00
C3       0.38752    1.24727    0.39154   1.00
H1       0.36581    1.26157    0.37367   1.00
C2       0.41345    1.26939    0.41512   1.00
C5       0.32764    1.14379    0.45491   1.00
H2       0.31621    1.11338    0.45324   1.00
H2       0.32396    1.15766    0.42568   1.00
C5       0.30360    1.16629    0.48482   1.00
H2       0.31571    1.19637    0.48730   1.00
H2       0.30719    1.15198    0.51381   1.00
C5       0.26027    1.16762    0.47302   1.00
H2       0.24806    1.13768    0.47023   1.00
H2       0.25651    1.18311    0.44473   1.00
C5       0.23649    1.18945    0.50427   1.00
C5       0.37564    1.17605    0.33276   1.00
C5       0.45819    1.27570    0.49650   1.00
H2       0.40087    1.15588    0.33588   1.00
H2       0.38516    1.20212    0.31574   1.00
H2       0.45195    1.24800    0.51244   1.00
H2       0.43114    1.29395    0.49761   1.00
H2       0.47129    1.35530    0.53386   1.00
H2       0.37735    1.10747    0.28371   1.00
H2       0.37701    1.15263    0.25588   1.00
C2       0.41233    1.06105    0.41523   1.00
C3       0.43820    1.08097    0.39011   1.00
O2       0.45541    1.06174    0.35921   1.00
C3       0.38912    1.08326    0.44117   1.00
H1       0.36977    1.06885    0.46147   1.00
C3a      0.43956    1.12213    0.39070   1.00
H1       0.45787    1.13702    0.36975   1.00
C3b      0.38964    1.12422    0.44082   1.00
C4       0.41492    1.14400    0.41541   1.00
O3       0.36037    1.18667    0.36949   1.00
C5       0.49441    1.05220    0.36831   1.00
H2       0.51190    1.07891    0.37486   1.00
C5       0.51148    1.03174    0.33269   1.00
H2       0.49584    1.03226    0.39397   1.00
H2       0.51970    1.05432    0.31081   1.00
H2       0.48771    1.01407    0.31929   1.00
C5       0.54680    1.00582    0.34262   1.00
H2       0.56891    1.02324    0.35871   1.00
C5       0.56563    0.98953    0.30523   1.00
H2       0.53798    0.98007    0.36062   1.00
C5       0.34336    1.15517    0.31037   1.00
H2       0.32115    1.17715    0.30141   1.00
H2       0.32859    1.13452    0.33068   1.00
C5       0.35924    1.13300    0.27467   1.00
C5       0.32516    1.11725    0.25001   1.00
H2       0.53545    1.35786    0.55891   1.00
H2       0.50406    1.34947    0.60242   1.00
H2       0.53189    1.30823    0.58067   1.00
H2       0.20610    1.19605    0.49247   1.00
H2       0.23393    1.17051    0.53149   1.00
H2       0.25182    1.21793    0.51198   1.00
H2       0.57712    0.95887    0.31105   1.00
H2       0.54293    0.98844    0.28095   1.00
H2       0.59079    1.00923    0.29600   1.00
H2       0.29664    1.12134    0.26663   1.00
H2       0.32370    1.13384    0.22123   1.00
H2       0.32990    1.08490    0.24393   1.00
C5       0.03282    1.01561    0.33785   1.00
H2       0.01755    0.99145    0.32260   1.00
H2       0.05410    1.02752    0.31650   1.00
C5       0.00306    1.04716    0.34956   1.00
C5       -0.00623   1.07403    0.31478   1.00
H2       0.01485    1.06508    0.37395   1.00
O3       0.18500    0.96706    0.46301   1.00
C4       0.14400    0.91459    0.41492   1.00
C3c      0.12257    0.93776    0.38879   1.00
H1       0.13775    0.95602    0.36803   1.00
C3d      0.12365    0.89058    0.44136   1.00
C3       0.08146    0.93823    0.38933   1.00
O2       0.06252    0.95787    0.35987   1.00
C3       0.08273    0.89154    0.44248   1.00
H1       0.06843    0.87367    0.46419   1.00
C2       0.06061    0.91512    0.41655   1.00
C5       0.18621    0.95491    0.50236   1.00
H2       0.21662    0.95324    0.51379   1.00
H2       0.17234    0.92568    0.50604   1.00
C5       0.16371    0.98482    0.52640   1.00
H2       0.13363    0.98730    0.51429   1.00
H2       0.17802    1.01381    0.52281   1.00
C5       0.16238    0.97302    0.56973   1.00
H2       0.19232    0.97023    0.58194   1.00
H2       0.14689    0.94473    0.57349   1.00
C5       0.14055    1.00427    0.59351   1.00
C5       0.15395    0.83276    0.45436   1.00
C5       0.05430    0.99650    0.37181   1.00
H2       0.17412    0.83588    0.42913   1.00
H2       0.12788    0.81574    0.44484   1.00
H2       0.08200    1.01244    0.37805   1.00
H2       0.03605    0.99761    0.39886   1.00
H2       -0.02530   1.03386    0.35871   1.00
H2       0.22253    0.78371    0.45265   1.00
H2       0.17737    0.75588    0.45299   1.00
C2       0.26895    0.91523    0.41767   1.00
C3       0.24903    0.89011    0.39180   1.00
O2       0.26826    0.85921    0.37459   1.00
C3       0.24674    0.94117    0.44088   1.00
H1       0.26115    0.96147    0.46023   1.00
C3a      0.20787    0.89070    0.39044   1.00
H1       0.19298    0.86975    0.37213   1.00
C3b      0.20578    0.94082    0.44036   1.00
C4       0.18600    0.91541    0.41508   1.00
O3       0.14333    0.86949    0.46963   1.00
C5       0.27780    0.86831    0.33559   1.00
H2       0.25109    0.87486    0.31810   1.00
C5       0.29826    0.83269    0.31852   1.00
H2       0.29774    0.89397    0.33416   1.00
H2       0.27568    0.81081    0.31030   1.00
H2       0.31593    0.81929    0.34229   1.00
C5       0.32418    0.84262    0.28320   1.00
H2       0.30676    0.85871    0.26109   1.00
C5       0.34047    0.80523    0.26437   1.00
H2       0.34993    0.86062    0.29202   1.00
C5       0.17483    0.81037    0.48664   1.00
H2       0.15285    0.80141    0.50885   1.00
H2       0.19548    0.83068    0.50141   1.00
C5       0.19700    0.77467    0.47076   1.00
C5       0.21275    0.75001    0.50484   1.00
H2       -0.02786   1.05891    0.29455   1.00
H2       -0.01947   1.10242    0.32594   1.00
H2       0.02177    1.08067    0.29811   1.00
H2       0.13395    0.99247    0.62390   1.00
H2       0.15949    1.03149    0.59607   1.00
H2       0.11207    1.01198    0.57818   1.00
H2       0.37113    0.81105    0.25288   1.00
H2       0.34156    0.78095    0.28707   1.00
H2       0.32077    0.79600    0.23921   1.00
H2       0.20866    0.76663    0.53336   1.00
H2       0.19616    0.72123    0.50630   1.00
H2       0.24510    0.74393    0.50010   1.00
C5       0.79718    1.01561    0.49215   1.00
H2       0.81245    0.99145    0.50740   1.00
H2       0.77590    1.02752    0.51350   1.00
C5       0.82694    1.04716    0.48044   1.00
C5       0.83623    1.07403    0.51522   1.00
H2       0.81515    1.06508    0.45605   1.00
O3       0.64500    0.96706    0.36699   1.00
C4       0.68600    0.91459    0.41508   1.00
C3c      0.70743    0.93776    0.44121   1.00
H1       0.69225    0.95602    0.46197   1.00
C3d      0.70635    0.89058    0.38864   1.00
C3       0.74854    0.93823    0.44067   1.00
O2       0.76748    0.95787    0.47013   1.00
C3       0.74727    0.89154    0.38752   1.00
H1       0.76157    0.87367    0.36581   1.00
C2       0.76939    0.91512    0.41345   1.00
C5       0.64379    0.95491    0.32764   1.00
H2       0.61338    0.95324    0.31621   1.00
H2       0.65766    0.92568    0.32396   1.00
C5       0.66629    0.98482    0.30360   1.00
H2       0.69637    0.98730    0.31571   1.00
H2       0.65198    1.01381    0.30719   1.00
C5       0.66762    0.97302    0.26027   1.00
H2       0.63768    0.97023    0.24806   1.00
H2       0.68311    0.94473    0.25651   1.00
C5       0.68945    1.00427    0.23649   1.00
C5       0.67605    0.83276    0.37564   1.00
C5       0.77570    0.99650    0.45819   1.00
H2       0.65588    0.83588    0.40087   1.00
H2       0.70212    0.81574    0.38516   1.00
H2       0.74800    1.01244    0.45195   1.00
H2       0.79395    0.99761    0.43114   1.00
H2       0.85530    1.03386    0.47129   1.00
H2       0.60747    0.78371    0.37735   1.00
H2       0.65263    0.75588    0.37701   1.00
C2       0.56105    0.91523    0.41233   1.00
C3       0.58097    0.89011    0.43820   1.00
O2       0.56174    0.85921    0.45541   1.00
C3       0.58326    0.94117    0.38912   1.00
H1       0.56885    0.96147    0.36977   1.00
C3a      0.62213    0.89070    0.43956   1.00
H1       0.63702    0.86975    0.45787   1.00
C3b      0.62422    0.94082    0.38964   1.00
C4       0.64400    0.91541    0.41492   1.00
O3       0.68667    0.86949    0.36037   1.00
C5       0.55220    0.86831    0.49441   1.00
H2       0.57891    0.87486    0.51190   1.00
C5       0.53174    0.83269    0.51148   1.00
H2       0.53226    0.89397    0.49584   1.00
H2       0.55432    0.81081    0.51970   1.00
H2       0.51407    0.81929    0.48771   1.00
C5       0.50582    0.84262    0.54680   1.00
H2       0.52324    0.85871    0.56891   1.00
C5       0.48953    0.80523    0.56563   1.00
H2       0.48007    0.86062    0.53798   1.00
C5       0.65517    0.81037    0.34336   1.00
H2       0.67715    0.80141    0.32115   1.00
H2       0.63452    0.83068    0.32859   1.00
C5       0.63300    0.77467    0.35924   1.00
C5       0.61725    0.75001    0.32516   1.00
H2       0.85786    1.05891    0.53545   1.00
H2       0.84947    1.10242    0.50406   1.00
H2       0.80823    1.08067    0.53189   1.00
H2       0.69605    0.99247    0.20610   1.00
H2       0.67051    1.03149    0.23393   1.00
H2       0.71793    1.01198    0.25182   1.00
H2       0.45887    0.81105    0.57712   1.00
H2       0.48844    0.78095    0.54293   1.00
H2       0.50923    0.79600    0.59079   1.00
H2       0.62134    0.76663    0.29664   1.00
H2       0.63384    0.72123    0.32370   1.00
H2       0.58490    0.74393    0.32990   1.00
C5       0.33785    0.53282    0.51561   1.00
H2       0.32260    0.51755    0.49145   1.00
H2       0.31650    0.55410    0.52752   1.00
C5       0.34956    0.50306    0.54716   1.00
C5       0.31478    0.49377    0.57403   1.00
H2       0.37395    0.51485    0.56508   1.00
O3       0.46301    0.68500    0.46706   1.00
C4       0.41492    0.64400    0.41459   1.00
C3c      0.38879    0.62257    0.43776   1.00
H1       0.36803    0.63775    0.45602   1.00
C3d      0.44136    0.62365    0.39058   1.00
C3       0.38933    0.58146    0.43823   1.00
O2       0.35987    0.56252    0.45787   1.00
C3       0.44248    0.58273    0.39154   1.00
H1       0.46419    0.56843    0.37367   1.00
C2       0.41655    0.56061    0.41512   1.00
C5       0.50236    0.68621    0.45491   1.00
H2       0.51379    0.71662    0.45324   1.00
H2       0.50604    0.67234    0.42568   1.00
C5       0.52640    0.66371    0.48482   1.00
H2       0.51429    0.63363    0.48730   1.00
H2       0.52281    0.67802    0.51381   1.00
C5       0.56973    0.66238    0.47302   1.00
H2       0.58194    0.69232    0.47023   1.00
H2       0.57349    0.64689    0.44473   1.00
C5       0.59351    0.64055    0.50427   1.00
C5       0.45436    0.65395    0.33276   1.00
C5       0.37181    0.55430    0.49650   1.00
H2       0.42913    0.67412    0.33588   1.00
H2       0.44484    0.62788    0.31574   1.00
H2       0.37805    0.58200    0.51244   1.00
H2       0.39886    0.53605    0.49761   1.00
H2       0.35871    0.47470    0.53386   1.00
H2       0.45265    0.72253    0.28371   1.00
H2       0.45299    0.67737    0.25588   1.00
C2       0.41767    0.76895    0.41523   1.00
C3       0.39180    0.74903    0.39011   1.00
O2       0.37459    0.76826    0.35921   1.00
C3       0.44088    0.74674    0.44117   1.00
H1       0.46023    0.76115    0.46147   1.00
C3a      0.39044    0.70787    0.39070   1.00
H1       0.37213    0.69298    0.36975   1.00
C3b      0.44036    0.70578    0.44082   1.00
C4       0.41508    0.68600    0.41541   1.00
O3       0.46963    0.64333    0.36949   1.00
C5       0.33559    0.77780    0.36831   1.00
H2       0.31810    0.75109    0.37486   1.00
C5       0.31852    0.79826    0.33269   1.00
H2       0.33416    0.79774    0.39397   1.00
H2       0.31030    0.77568    0.31081   1.00
H2       0.34229    0.81593    0.31929   1.00
C5       0.28320    0.82418    0.34262   1.00
H2       0.26109    0.80676    0.35871   1.00
C5       0.26437    0.84047    0.30523   1.00
H2       0.29202    0.84993    0.36062   1.00
C5       0.48664    0.67483    0.31037   1.00
H2       0.50885    0.65285    0.30141   1.00
H2       0.50141    0.69548    0.33068   1.00
C5       0.47076    0.69700    0.27467   1.00
C5       0.50484    0.71275    0.25001   1.00
H2       0.29455    0.47214    0.55891   1.00
H2       0.32594    0.48053    0.60242   1.00
H2       0.29811    0.52177    0.58067   1.00
H2       0.62390    0.63395    0.49247   1.00
H2       0.59607    0.65949    0.53149   1.00
H2       0.57818    0.61207    0.51198   1.00
H2       0.25288    0.87113    0.31105   1.00
H2       0.28707    0.84156    0.28095   1.00
H2       0.23921    0.82077    0.29600   1.00
H2       0.53336    0.70866    0.26663   1.00
H2       0.50630    0.69616    0.22123   1.00
H2       0.50010    0.74510    0.24393   1.00
C5       0.51561    0.83785    0.03282   1.00
H2       0.49145    0.82260    0.01755   1.00
H2       0.52752    0.81650    0.05410   1.00
C5       0.54716    0.84956    0.00306   1.00
C5       0.57403    0.81478    -0.00623   1.00
H2       0.56508    0.87395    0.01485   1.00
O3       0.46706    0.96301    0.18500   1.00
C4       0.41459    0.91492    0.14400   1.00
C3c      0.43776    0.88879    0.12257   1.00
H1       0.45602    0.86803    0.13775   1.00
C3d      0.39058    0.94136    0.12365   1.00
C3       0.43823    0.88933    0.08146   1.00
O2       0.45787    0.85987    0.06252   1.00
C3       0.39154    0.94248    0.08273   1.00
H1       0.37367    0.96419    0.06843   1.00
C2       0.41512    0.91655    0.06061   1.00
C5       0.45491    1.00236    0.18621   1.00
H2       0.45324    1.01379    0.21662   1.00
H2       0.42568    1.00604    0.17234   1.00
C5       0.48482    1.02640    0.16371   1.00
H2       0.48730    1.01429    0.13363   1.00
H2       0.51381    1.02281    0.17802   1.00
C5       0.47302    1.06973    0.16238   1.00
H2       0.47023    1.08194    0.19232   1.00
H2       0.44473    1.07349    0.14689   1.00
C5       0.50427    1.09351    0.14055   1.00
C5       0.33276    0.95436    0.15395   1.00
C5       0.49650    0.87181    0.05430   1.00
H2       0.33588    0.92913    0.17412   1.00
H2       0.31574    0.94484    0.12788   1.00
H2       0.51244    0.87805    0.08200   1.00
H2       0.49761    0.89886    0.03605   1.00
H2       0.53386    0.85871    -0.02530   1.00
H2       0.28371    0.95265    0.22253   1.00
H2       0.25588    0.95299    0.17737   1.00
C2       0.41523    0.91767    0.26895   1.00
C3       0.39011    0.89180    0.24903   1.00
O2       0.35921    0.87459    0.26826   1.00
C3       0.44117    0.94088    0.24674   1.00
H1       0.46147    0.96023    0.26115   1.00
C3a      0.39070    0.89044    0.20787   1.00
H1       0.36975    0.87213    0.19298   1.00
C3b      0.44082    0.94036    0.20578   1.00
C4       0.41541    0.91508    0.18600   1.00
O3       0.36949    0.96963    0.14333   1.00
C5       0.36831    0.83559    0.27780   1.00
H2       0.37486    0.81810    0.25109   1.00
C5       0.33269    0.81852    0.29826   1.00
H2       0.39397    0.83416    0.29774   1.00
H2       0.31081    0.81030    0.27568   1.00
H2       0.31929    0.84229    0.31593   1.00
C5       0.34262    0.78320    0.32418   1.00
H2       0.35871    0.76109    0.30676   1.00
C5       0.30523    0.76437    0.34047   1.00
H2       0.36062    0.79202    0.34993   1.00
C5       0.31037    0.98664    0.17483   1.00
H2       0.30141    1.00885    0.15285   1.00
H2       0.33068    1.00141    0.19548   1.00
C5       0.27467    0.97076    0.19700   1.00
C5       0.25001    1.00484    0.21275   1.00
H2       0.55891    0.79455    -0.02786   1.00
H2       0.60242    0.82594    -0.01947   1.00
H2       0.58067    0.79811    0.02177   1.00
H2       0.49247    1.12390    0.13395   1.00
H2       0.53149    1.09607    0.15949   1.00
H2       0.51198    1.07818    0.11207   1.00
H2       0.31105    0.75288    0.37113   1.00
H2       0.28095    0.78707    0.34156   1.00
H2       0.29600    0.73921    0.32077   1.00
H2       0.26663    1.03336    0.20866   1.00
H2       0.22123    1.00630    0.19616   1.00
H2       0.24393    1.00010    0.24510   1.00
C5       1.01561    0.49215    0.79718   1.00
H2       0.99145    0.50740    0.81245   1.00
H2       1.02752    0.51350    0.77590   1.00
C5       1.04716    0.48044    0.82694   1.00
C5       1.07403    0.51522    0.83623   1.00
H2       1.06508    0.45605    0.81515   1.00
O3       0.96706    0.36699    0.64500   1.00
C4       0.91459    0.41508    0.68600   1.00
C3c      0.93776    0.44121    0.70743   1.00
H1       0.95602    0.46197    0.69225   1.00
C3d      0.89058    0.38864    0.70635   1.00
C3       0.93823    0.44067    0.74854   1.00
O2       0.95787    0.47013    0.76748   1.00
C3       0.89154    0.38752    0.74727   1.00
H1       0.87367    0.36581    0.76157   1.00
C2       0.91512    0.41345    0.76939   1.00
C5       0.95491    0.32764    0.64379   1.00
H2       0.95324    0.31621    0.61338   1.00
H2       0.92568    0.32396    0.65766   1.00
C5       0.98482    0.30360    0.66629   1.00
H2       0.98730    0.31571    0.69637   1.00
H2       1.01381    0.30719    0.65198   1.00
C5       0.97302    0.26027    0.66762   1.00
H2       0.97023    0.24806    0.63768   1.00
H2       0.94473    0.25651    0.68311   1.00
C5       1.00427    0.23649    0.68945   1.00
C5       0.83276    0.37564    0.67605   1.00
C5       0.99650    0.45819    0.77570   1.00
H2       0.83588    0.40087    0.65588   1.00
H2       0.81574    0.38516    0.70212   1.00
H2       1.01244    0.45195    0.74800   1.00
H2       0.99761    0.43114    0.79395   1.00
H2       1.03386    0.47129    0.85530   1.00
H2       0.78371    0.37735    0.60747   1.00
H2       0.75588    0.37701    0.65263   1.00
C2       0.91523    0.41233    0.56105   1.00
C3       0.89011    0.43820    0.58097   1.00
O2       0.85921    0.45541    0.56174   1.00
C3       0.94117    0.38912    0.58326   1.00
H1       0.96147    0.36977    0.56885   1.00
C3a      0.89070    0.43956    0.62213   1.00
H1       0.86975    0.45787    0.63702   1.00
C3b      0.94082    0.38964    0.62422   1.00
C4       0.91541    0.41492    0.64400   1.00
O3       0.86949    0.36037    0.68667   1.00
C5       0.86831    0.49441    0.55220   1.00
H2       0.87486    0.51190    0.57891   1.00
C5       0.83269    0.51148    0.53174   1.00
H2       0.89397    0.49584    0.53226   1.00
H2       0.81081    0.51970    0.55432   1.00
H2       0.81929    0.48771    0.51407   1.00
C5       0.84262    0.54680    0.50582   1.00
H2       0.85871    0.56891    0.52324   1.00
C5       0.80523    0.56563    0.48953   1.00
H2       0.86062    0.53798    0.48007   1.00
C5       0.81037    0.34336    0.65517   1.00
H2       0.80141    0.32115    0.67715   1.00
H2       0.83068    0.32859    0.63452   1.00
C5       0.77467    0.35924    0.63300   1.00
C5       0.75001    0.32516    0.61725   1.00
H2       1.05891    0.53545    0.85786   1.00
H2       1.10242    0.50406    0.84947   1.00
H2       1.08067    0.53189    0.80823   1.00
H2       0.99247    0.20610    0.69605   1.00
H2       1.03149    0.23393    0.67051   1.00
H2       1.01198    0.25182    0.71793   1.00
H2       0.81105    0.57712    0.45887   1.00
H2       0.78095    0.54293    0.48844   1.00
H2       0.79600    0.59079    0.50923   1.00
H2       0.76663    0.29664    0.62134   1.00
H2       0.72123    0.32370    0.63384   1.00
H2       0.74393    0.32990    0.58490   1.00
C5       0.99215    0.79718    0.51561   1.00
H2       1.00740    0.81245    0.49145   1.00
H2       1.01350    0.77590    0.52752   1.00
C5       0.98044    0.82694    0.54716   1.00
C5       1.01522    0.83623    0.57403   1.00
H2       0.95605    0.81515    0.56508   1.00
O3       0.86699    0.64500    0.46706   1.00
C4       0.91508    0.68600    0.41459   1.00
C3c      0.94121    0.70743    0.43776   1.00
H1       0.96197    0.69225    0.45602   1.00
C3d      0.88864    0.70635    0.39058   1.00
C3       0.94067    0.74854    0.43823   1.00
O2       0.97013    0.76748    0.45787   1.00
C3       0.88752    0.74727    0.39154   1.00
H1       0.86581    0.76157    0.37367   1.00
C2       0.91345    0.76939    0.41512   1.00
C5       0.82764    0.64379    0.45491   1.00
H2       0.81621    0.61338    0.45324   1.00
H2       0.82396    0.65766    0.42568   1.00
C5       0.80360    0.66629    0.48482   1.00
H2       0.81571    0.69637    0.48730   1.00
H2       0.80719    0.65198    0.51381   1.00
C5       0.76027    0.66762    0.47302   1.00
H2       0.74806    0.63768    0.47023   1.00
H2       0.75651    0.68311    0.44473   1.00
C5       0.73649    0.68945    0.50427   1.00
C5       0.87564    0.67605    0.33276   1.00
C5       0.95819    0.77570    0.49650   1.00
H2       0.90087    0.65588    0.33588   1.00
H2       0.88516    0.70212    0.31574   1.00
H2       0.95195    0.74800    0.51244   1.00
H2       0.93114    0.79395    0.49761   1.00
H2       0.97129    0.85530    0.53386   1.00
H2       0.87735    0.60747    0.28371   1.00
H2       0.87701    0.65263    0.25588   1.00
C2       0.91233    0.56105    0.41523   1.00
C3       0.93820    0.58097    0.39011   1.00
O2       0.95541    0.56174    0.35921   1.00
C3       0.88912    0.58326    0.44117   1.00
H1       0.86977    0.56885    0.46147   1.00
C3a      0.93956    0.62213    0.39070   1.00
H1       0.95787    0.63702    0.36975   1.00
C3b      0.88964    0.62422    0.44082   1.00
C4       0.91492    0.64400    0.41541   1.00
O3       0.86037    0.68667    0.36949   1.00
C5       0.99441    0.55220    0.36831   1.00
H2       1.01190    0.57891    0.37486   1.00
C5       1.01148    0.53174    0.33269   1.00
H2       0.99584    0.53226    0.39397   1.00
H2       1.01970    0.55432    0.31081   1.00
H2       0.98771    0.51407    0.31929   1.00
C5       1.04680    0.50582    0.34262   1.00
H2       1.06891    0.52324    0.35871   1.00
C5       1.06563    0.48953    0.30523   1.00
H2       1.03798    0.48007    0.36062   1.00
C5       0.84336    0.65517    0.31037   1.00
H2       0.82115    0.67715    0.30141   1.00
H2       0.82859    0.63452    0.33068   1.00
C5       0.85924    0.63300    0.27467   1.00
C5       0.82516    0.61725    0.25001   1.00
H2       1.03545    0.85786    0.55891   1.00
H2       1.00406    0.84947    0.60242   1.00
H2       1.03189    0.80823    0.58067   1.00
H2       0.70610    0.69605    0.49247   1.00
H2       0.73393    0.67051    0.53149   1.00
H2       0.75182    0.71793    0.51198   1.00
H2       1.07712    0.45887    0.31105   1.00
H2       1.04293    0.48844    0.28095   1.00
H2       1.09079    0.50923    0.29600   1.00
H2       0.79664    0.62134    0.26663   1.00
H2       0.82370    0.63384    0.22123   1.00
H2       0.82990    0.58490    0.24393   1.00
C5       0.53282    0.51561    0.33785   1.00
H2       0.51755    0.49145    0.32260   1.00
H2       0.55410    0.52752    0.31650   1.00
C5       0.50306    0.54716    0.34956   1.00
C5       0.49377    0.57403    0.31478   1.00
H2       0.51485    0.56508    0.37395   1.00
O3       0.68500    0.46706    0.46301   1.00
C4       0.64400    0.41459    0.41492   1.00
C3c      0.62257    0.43776    0.38879   1.00
H1       0.63775    0.45602    0.36803   1.00
C3d      0.62365    0.39058    0.44136   1.00
C3       0.58146    0.43823    0.38933   1.00
O2       0.56252    0.45787    0.35987   1.00
C3       0.58273    0.39154    0.44248   1.00
H1       0.56843    0.37367    0.46419   1.00
C2       0.56061    0.41512    0.41655   1.00
C5       0.68621    0.45491    0.50236   1.00
H2       0.71662    0.45324    0.51379   1.00
H2       0.67234    0.42568    0.50604   1.00
C5       0.66371    0.48482    0.52640   1.00
H2       0.63363    0.48730    0.51429   1.00
H2       0.67802    0.51381    0.52281   1.00
C5       0.66238    0.47302    0.56973   1.00
H2       0.69232    0.47023    0.58194   1.00
H2       0.64689    0.44473    0.57349   1.00
C5       0.64055    0.50427    0.59351   1.00
C5       0.65395    0.33276    0.45436   1.00
C5       0.55430    0.49650    0.37181   1.00
H2       0.67412    0.33588    0.42913   1.00
H2       0.62788    0.31574    0.44484   1.00
H2       0.58200    0.51244    0.37805   1.00
H2       0.53605    0.49761    0.39886   1.00
H2       0.47470    0.53386    0.35871   1.00
H2       0.72253    0.28371    0.45265   1.00
H2       0.67737    0.25588    0.45299   1.00
C2       0.76895    0.41523    0.41767   1.00
C3       0.74903    0.39011    0.39180   1.00
O2       0.76826    0.35921    0.37459   1.00
C3       0.74674    0.44117    0.44088   1.00
H1       0.76115    0.46147    0.46023   1.00
C3a      0.70787    0.39070    0.39044   1.00
H1       0.69298    0.36975    0.37213   1.00
C3b      0.70578    0.44082    0.44036   1.00
C4       0.68600    0.41541    0.41508   1.00
O3       0.64333    0.36949    0.46963   1.00
C5       0.77780    0.36831    0.33559   1.00
H2       0.75109    0.37486    0.31810   1.00
C5       0.79826    0.33269    0.31852   1.00
H2       0.79774    0.39397    0.33416   1.00
H2       0.77568    0.31081    0.31030   1.00
H2       0.81593    0.31929    0.34229   1.00
C5       0.82418    0.34262    0.28320   1.00
H2       0.80676    0.35871    0.26109   1.00
C5       0.84047    0.30523    0.26437   1.00
H2       0.84993    0.36062    0.29202   1.00
C5       0.67483    0.31037    0.48664   1.00
H2       0.65285    0.30141    0.50885   1.00
H2       0.69548    0.33068    0.50141   1.00
C5       0.69700    0.27467    0.47076   1.00
C5       0.71275    0.25001    0.50484   1.00
H2       0.47214    0.55891    0.29455   1.00
H2       0.48053    0.60242    0.32594   1.00
H2       0.52177    0.58067    0.29811   1.00
H2       0.63395    0.49247    0.62390   1.00
H2       0.65949    0.53149    0.59607   1.00
H2       0.61207    0.51198    0.57818   1.00
H2       0.87113    0.31105    0.25288   1.00
H2       0.84156    0.28095    0.28707   1.00
H2       0.82077    0.29600    0.23921   1.00
H2       0.70866    0.26663    0.53336   1.00
H2       0.69616    0.22123    0.50630   1.00
H2       0.74510    0.24393    0.50010   1.00
C5       1.29718    0.51561    0.49215   1.00
H2       1.31245    0.49145    0.50740   1.00
H2       1.27590    0.52752    0.51350   1.00
C5       1.32694    0.54716    0.48044   1.00
C5       1.33623    0.57403    0.51522   1.00
H2       1.31515    0.56508    0.45605   1.00
O3       1.14500    0.46706    0.36699   1.00
C4       1.18600    0.41459    0.41508   1.00
C3c      1.20743    0.43776    0.44121   1.00
H1       1.19225    0.45602    0.46197   1.00
C3d      1.20635    0.39058    0.38864   1.00
C3       1.24854    0.43823    0.44067   1.00
O2       1.26748    0.45787    0.47013   1.00
C3       1.24727    0.39154    0.38752   1.00
H1       1.26157    0.37367    0.36581   1.00
C2       1.26939    0.41512    0.41345   1.00
C5       1.14379    0.45491    0.32764   1.00
H2       1.11338    0.45324    0.31621   1.00
H2       1.15766    0.42568    0.32396   1.00
C5       1.16629    0.48482    0.30360   1.00
H2       1.19637    0.48730    0.31571   1.00
H2       1.15198    0.51381    0.30719   1.00
C5       1.16762    0.47302    0.26027   1.00
H2       1.13768    0.47023    0.24806   1.00
H2       1.18311    0.44473    0.25651   1.00
C5       1.18945    0.50427    0.23649   1.00
C5       1.17605    0.33276    0.37564   1.00
C5       1.27570    0.49650    0.45819   1.00
H2       1.15588    0.33588    0.40087   1.00
H2       1.20212    0.31574    0.38516   1.00
H2       1.24800    0.51244    0.45195   1.00
H2       1.29395    0.49761    0.43114   1.00
H2       1.35530    0.53386    0.47129   1.00
H2       1.10747    0.28371    0.37735   1.00
H2       1.15263    0.25588    0.37701   1.00
C2       1.06105    0.41523    0.41233   1.00
C3       1.08097    0.39011    0.43820   1.00
O2       1.06174    0.35921    0.45541   1.00
C3       1.08326    0.44117    0.38912   1.00
H1       1.06885    0.46147    0.36977   1.00
C3a      1.12213    0.39070    0.43956   1.00
H1       1.13702    0.36975    0.45787   1.00
C3b      1.12422    0.44082    0.38964   1.00
C4       1.14400    0.41541    0.41492   1.00
O3       1.18667    0.36949    0.36037   1.00
C5       1.05220    0.36831    0.49441   1.00
H2       1.07891    0.37486    0.51190   1.00
C5       1.03174    0.33269    0.51148   1.00
H2       1.03226    0.39397    0.49584   1.00
H2       1.05432    0.31081    0.51970   1.00
H2       1.01407    0.31929    0.48771   1.00
C5       1.00582    0.34262    0.54680   1.00
H2       1.02324    0.35871    0.56891   1.00
C5       0.98953    0.30523    0.56563   1.00
H2       0.98007    0.36062    0.53798   1.00
C5       1.15517    0.31037    0.34336   1.00
H2       1.17715    0.30141    0.32115   1.00
H2       1.13452    0.33068    0.32859   1.00
C5       1.13300    0.27467    0.35924   1.00
C5       1.11725    0.25001    0.32516   1.00
H2       1.35786    0.55891    0.53545   1.00
H2       1.34947    0.60242    0.50406   1.00
H2       1.30823    0.58067    0.53189   1.00
H2       1.19605    0.49247    0.20610   1.00
H2       1.17051    0.53149    0.23393   1.00
H2       1.21793    0.51198    0.25182   1.00
H2       0.95887    0.31105    0.57712   1.00
H2       0.98844    0.28095    0.54293   1.00
H2       1.00923    0.29600    0.59079   1.00
H2       1.12134    0.26663    0.29664   1.00
H2       1.13384    0.22123    0.32370   1.00
H2       1.08490    0.24393    0.32990   1.00
C5       0.83785    0.03282    0.51561   1.00
H2       0.82260    0.01755    0.49145   1.00
H2       0.81650    0.05410    0.52752   1.00
C5       0.84956    0.00306    0.54716   1.00
C5       0.81478    -0.00623   0.57403   1.00
H2       0.87395    0.01485    0.56508   1.00
O3       0.96301    0.18500    0.46706   1.00
C4       0.91492    0.14400    0.41459   1.00
C3c      0.88879    0.12257    0.43776   1.00
H1       0.86803    0.13775    0.45602   1.00
C3d      0.94136    0.12365    0.39058   1.00
C3       0.88933    0.08146    0.43823   1.00
O2       0.85987    0.06252    0.45787   1.00
C3       0.94248    0.08273    0.39154   1.00
H1       0.96419    0.06843    0.37367   1.00
C2       0.91655    0.06061    0.41512   1.00
C5       1.00236    0.18621    0.45491   1.00
H2       1.01379    0.21662    0.45324   1.00
H2       1.00604    0.17234    0.42568   1.00
C5       1.02640    0.16371    0.48482   1.00
H2       1.01429    0.13363    0.48730   1.00
H2       1.02281    0.17802    0.51381   1.00
C5       1.06973    0.16238    0.47302   1.00
H2       1.08194    0.19232    0.47023   1.00
H2       1.07349    0.14689    0.44473   1.00
C5       1.09351    0.14055    0.50427   1.00
C5       0.95436    0.15395    0.33276   1.00
C5       0.87181    0.05430    0.49650   1.00
H2       0.92913    0.17412    0.33588   1.00
H2       0.94484    0.12788    0.31574   1.00
H2       0.87805    0.08200    0.51244   1.00
H2       0.89886    0.03605    0.49761   1.00
H2       0.85871    -0.02530   0.53386   1.00
H2       0.95265    0.22253    0.28371   1.00
H2       0.95299    0.17737    0.25588   1.00
C2       0.91767    0.26895    0.41523   1.00
C3       0.89180    0.24903    0.39011   1.00
O2       0.87459    0.26826    0.35921   1.00
C3       0.94088    0.24674    0.44117   1.00
H1       0.96023    0.26115    0.46147   1.00
C3a      0.89044    0.20787    0.39070   1.00
H1       0.87213    0.19298    0.36975   1.00
C3b      0.94036    0.20578    0.44082   1.00
C4       0.91508    0.18600    0.41541   1.00
O3       0.96963    0.14333    0.36949   1.00
C5       0.83559    0.27780    0.36831   1.00
H2       0.81810    0.25109    0.37486   1.00
C5       0.81852    0.29826    0.33269   1.00
H2       0.83416    0.29774    0.39397   1.00
H2       0.81030    0.27568    0.31081   1.00
H2       0.84229    0.31593    0.31929   1.00
C5       0.78320    0.32418    0.34262   1.00
H2       0.76109    0.30676    0.35871   1.00
C5       0.76437    0.34047    0.30523   1.00
H2       0.79202    0.34993    0.36062   1.00
C5       0.98664    0.17483    0.31037   1.00
H2       1.00885    0.15285    0.30141   1.00
H2       1.00141    0.19548    0.33068   1.00
C5       0.97076    0.19700    0.27467   1.00
C5       1.00484    0.21275    0.25001   1.00
H2       0.79455    -0.02786   0.55891   1.00
H2       0.82594    -0.01947   0.60242   1.00
H2       0.79811    0.02177    0.58067   1.00
H2       1.12390    0.13395    0.49247   1.00
H2       1.09607    0.15949    0.53149   1.00
H2       1.07818    0.11207    0.51198   1.00
H2       0.75288    0.37113    0.31105   1.00
H2       0.78707    0.34156    0.28095   1.00
H2       0.73921    0.32077    0.29600   1.00
H2       1.03336    0.20866    0.26663   1.00
H2       1.00630    0.19616    0.22123   1.00
H2       1.00010    0.24510    0.24393   1.00
C5       1.01561    0.33785    0.03282   1.00
H2       0.99145    0.32260    0.01755   1.00
H2       1.02752    0.31650    0.05410   1.00
C5       1.04716    0.34956    0.00306   1.00
C5       1.07403    0.31478    -0.00623   1.00
H2       1.06508    0.37395    0.01485   1.00
O3       0.96706    0.46301    0.18500   1.00
C4       0.91459    0.41492    0.14400   1.00
C3c      0.93776    0.38879    0.12257   1.00
H1       0.95602    0.36803    0.13775   1.00
C3d      0.89058    0.44136    0.12365   1.00
C3       0.93823    0.38933    0.08146   1.00
O2       0.95787    0.35987    0.06252   1.00
C3       0.89154    0.44248    0.08273   1.00
H1       0.87367    0.46419    0.06843   1.00
C2       0.91512    0.41655    0.06061   1.00
C5       0.95491    0.50236    0.18621   1.00
H2       0.95324    0.51379    0.21662   1.00
H2       0.92568    0.50604    0.17234   1.00
C5       0.98482    0.52640    0.16371   1.00
H2       0.98730    0.51429    0.13363   1.00
H2       1.01381    0.52281    0.17802   1.00
C5       0.97302    0.56973    0.16238   1.00
H2       0.97023    0.58194    0.19232   1.00
H2       0.94473    0.57349    0.14689   1.00
C5       1.00427    0.59351    0.14055   1.00
C5       0.83276    0.45436    0.15395   1.00
C5       0.99650    0.37181    0.05430   1.00
H2       0.83588    0.42913    0.17412   1.00
H2       0.81574    0.44484    0.12788   1.00
H2       1.01244    0.37805    0.08200   1.00
H2       0.99761    0.39886    0.03605   1.00
H2       1.03386    0.35871    -0.02530   1.00
H2       0.78371    0.45265    0.22253   1.00
H2       0.75588    0.45299    0.17737   1.00
C2       0.91523    0.41767    0.26895   1.00
C3       0.89011    0.39180    0.24903   1.00
O2       0.85921    0.37459    0.26826   1.00
C3       0.94117    0.44088    0.24674   1.00
H1       0.96147    0.46023    0.26115   1.00
C3a      0.89070    0.39044    0.20787   1.00
H1       0.86975    0.37213    0.19298   1.00
C3b      0.94082    0.44036    0.20578   1.00
C4       0.91541    0.41508    0.18600   1.00
O3       0.86949    0.46963    0.14333   1.00
C5       0.86831    0.33559    0.27780   1.00
H2       0.87486    0.31810    0.25109   1.00
C5       0.83269    0.31852    0.29826   1.00
H2       0.89397    0.33416    0.29774   1.00
H2       0.81081    0.31030    0.27568   1.00
H2       0.81929    0.34229    0.31593   1.00
C5       0.84262    0.28320    0.32418   1.00
H2       0.85871    0.26109    0.30676   1.00
C5       0.80523    0.26437    0.34047   1.00
H2       0.86062    0.29202    0.34993   1.00
C5       0.81037    0.48664    0.17483   1.00
H2       0.80141    0.50885    0.15285   1.00
H2       0.83068    0.50141    0.19548   1.00
C5       0.77467    0.47076    0.19700   1.00
C5       0.75001    0.50484    0.21275   1.00
H2       1.05891    0.29455    -0.02786   1.00
H2       1.10242    0.32594    -0.01947   1.00
H2       1.08067    0.29811    0.02177   1.00
H2       0.99247    0.62390    0.13395   1.00
H2       1.03149    0.59607    0.15949   1.00
H2       1.01198    0.57818    0.11207   1.00
H2       0.81105    0.25288    0.37113   1.00
H2       0.78095    0.28707    0.34156   1.00
H2       0.79600    0.23921    0.32077   1.00
H2       0.76663    0.53336    0.20866   1.00
H2       0.72123    0.50630    0.19616   1.00
H2       0.74393    0.50010    0.24510   1.00
