data_IRMOF10_SG202_interpen_Ligand3cp_label_y.

_audit_creation_method             'generated by an auxiliary program of Tobunporous'

_symmetry_space_group_name_H-M     'P 1'
_symmetry_Int_Tables_number        1
_symmetry_cell_setting             triclinic

_cell_length_a                    34.2800
_cell_length_b                    34.2800
_cell_length_c                    34.2800
_cell_angle_alpha                 90.0000
_cell_angle_beta                  90.0000
_cell_angle_gamma                 90.0000

loop_
_atom_site_label
_atom_site_fract_x
_atom_site_fract_y
_atom_site_fract_z
_atom_site_occupancy
O1       0.75000    0.75000    0.75000   1.00
Zn1      0.71720    0.78280    0.78280   1.00
Zn1      0.78280    0.71720    0.78280   1.00
Zn1      0.78280    0.78280    0.71720   1.00
Zn1      0.71720    0.71720    0.71720   1.00
O2       0.72650    0.77350    0.83820   1.00
O2       0.72650    0.83820    0.77350   1.00
O2       0.66180    0.77350    0.77350   1.00
O2       0.77350    0.72650    0.83820   1.00
O2       0.83820    0.72650    0.77350   1.00
O2       0.77350    0.66180    0.77350   1.00
O2       0.77350    0.83820    0.72650   1.00
O2       0.83820    0.77350    0.72650   1.00
O2       0.77350    0.77350    0.66180   1.00
O2       0.66180    0.72650    0.72650   1.00
O2       0.72650    0.66180    0.72650   1.00
O2       0.72650    0.72650    0.66180   1.00
C1       0.75000    0.75000    0.85520   1.00
C1       0.75000    0.85520    0.75000   1.00
C1       0.64480    0.75000    0.75000   1.00
C1       0.85520    0.75000    0.75000   1.00
C1       0.75000    0.64480    0.75000   1.00
C1       0.75000    0.75000    0.64480   1.00
O1       0.25000    0.25000    0.75000   1.00
Zn1      0.21720    0.28280    0.78280   1.00
Zn1      0.28280    0.21720    0.78280   1.00
Zn1      0.28280    0.28280    0.71720   1.00
Zn1      0.21720    0.21720    0.71720   1.00
O2       0.22650    0.27350    0.83820   1.00
O2       0.22650    0.33820    0.77350   1.00
O2       0.16180    0.27350    0.77350   1.00
O2       0.27350    0.22650    0.83820   1.00
O2       0.33820    0.22650    0.77350   1.00
O2       0.27350    0.16180    0.77350   1.00
O2       0.27350    0.33820    0.72650   1.00
O2       0.33820    0.27350    0.72650   1.00
O2       0.27350    0.27350    0.66180   1.00
O2       0.16180    0.22650    0.72650   1.00
O2       0.22650    0.16180    0.72650   1.00
O2       0.22650    0.22650    0.66180   1.00
C1       0.25000    0.25000    0.85520   1.00
C1       0.25000    0.35520    0.75000   1.00
C1       0.14480    0.25000    0.75000   1.00
C1       0.35520    0.25000    0.75000   1.00
C1       0.25000    0.14480    0.75000   1.00
C1       0.25000    0.25000    0.64480   1.00
O1       0.25000    0.75000    0.25000   1.00
Zn1      0.21720    0.78280    0.28280   1.00
Zn1      0.28280    0.71720    0.28280   1.00
Zn1      0.28280    0.78280    0.21720   1.00
Zn1      0.21720    0.71720    0.21720   1.00
O2       0.22650    0.77350    0.33820   1.00
O2       0.22650    0.83820    0.27350   1.00
O2       0.16180    0.77350    0.27350   1.00
O2       0.27350    0.72650    0.33820   1.00
O2       0.33820    0.72650    0.27350   1.00
O2       0.27350    0.66180    0.27350   1.00
O2       0.27350    0.83820    0.22650   1.00
O2       0.33820    0.77350    0.22650   1.00
O2       0.27350    0.77350    0.16180   1.00
O2       0.16180    0.72650    0.22650   1.00
O2       0.22650    0.66180    0.22650   1.00
O2       0.22650    0.72650    0.16180   1.00
C1       0.25000    0.75000    0.35520   1.00
C1       0.25000    0.85520    0.25000   1.00
C1       0.14480    0.75000    0.25000   1.00
C1       0.35520    0.75000    0.25000   1.00
C1       0.25000    0.64480    0.25000   1.00
C1       0.25000    0.75000    0.14480   1.00
O1       0.75000    0.25000    0.25000   1.00
Zn1      0.71720    0.28280    0.28280   1.00
Zn1      0.78280    0.21720    0.28280   1.00
Zn1      0.78280    0.28280    0.21720   1.00
Zn1      0.71720    0.21720    0.21720   1.00
O2       0.72650    0.27350    0.33820   1.00
O2       0.72650    0.33820    0.27350   1.00
O2       0.66180    0.27350    0.27350   1.00
O2       0.77350    0.22650    0.33820   1.00
O2       0.83820    0.22650    0.27350   1.00
O2       0.77350    0.16180    0.27350   1.00
O2       0.77350    0.33820    0.22650   1.00
O2       0.83820    0.27350    0.22650   1.00
O2       0.77350    0.27350    0.16180   1.00
O2       0.66180    0.22650    0.22650   1.00
O2       0.72650    0.16180    0.22650   1.00
O2       0.72650    0.22650    0.16180   1.00
C1       0.75000    0.25000    0.35520   1.00
C1       0.75000    0.35520    0.25000   1.00
C1       0.64480    0.25000    0.25000   1.00
C1       0.85520    0.25000    0.25000   1.00
C1       0.75000    0.14480    0.25000   1.00
C1       0.75000    0.25000    0.14480   1.00
O1       0.25000    0.25000    0.25000   1.00
Zn1      0.28280    0.21720    0.21720   1.00
Zn1      0.21720    0.28280    0.21720   1.00
Zn1      0.21720    0.21720    0.28280   1.00
Zn1      0.28280    0.28280    0.28280   1.00
O2       0.27350    0.22650    0.16180   1.00
O2       0.27350    0.16180    0.22650   1.00
O2       0.33820    0.22650    0.22650   1.00
O2       0.22650    0.27350    0.16180   1.00
O2       0.16180    0.27350    0.22650   1.00
O2       0.22650    0.33820    0.22650   1.00
O2       0.22650    0.16180    0.27350   1.00
O2       0.16180    0.22650    0.27350   1.00
O2       0.22650    0.22650    0.33820   1.00
O2       0.33820    0.27350    0.27350   1.00
O2       0.27350    0.33820    0.27350   1.00
O2       0.27350    0.27350    0.33820   1.00
C1       0.25000    0.25000    0.14480   1.00
C1       0.25000    0.14480    0.25000   1.00
C1       0.35520    0.25000    0.25000   1.00
C1       0.14480    0.25000    0.25000   1.00
C1       0.25000    0.35520    0.25000   1.00
C1       0.25000    0.25000    0.35520   1.00
O1       0.75000    0.75000    0.25000   1.00
Zn1      0.78280    0.71720    0.21720   1.00
Zn1      0.71720    0.78280    0.21720   1.00
Zn1      0.71720    0.71720    0.28280   1.00
Zn1      0.78280    0.78280    0.28280   1.00
O2       0.77350    0.72650    0.16180   1.00
O2       0.77350    0.66180    0.22650   1.00
O2       0.83820    0.72650    0.22650   1.00
O2       0.72650    0.77350    0.16180   1.00
O2       0.66180    0.77350    0.22650   1.00
O2       0.72650    0.83820    0.22650   1.00
O2       0.72650    0.66180    0.27350   1.00
O2       0.66180    0.72650    0.27350   1.00
O2       0.72650    0.72650    0.33820   1.00
O2       0.83820    0.77350    0.27350   1.00
O2       0.77350    0.83820    0.27350   1.00
O2       0.77350    0.77350    0.33820   1.00
C1       0.75000    0.75000    0.14480   1.00
C1       0.75000    0.64480    0.25000   1.00
C1       0.85520    0.75000    0.25000   1.00
C1       0.64480    0.75000    0.25000   1.00
C1       0.75000    0.85520    0.25000   1.00
C1       0.75000    0.75000    0.35520   1.00
O1       0.75000    0.25000    0.75000   1.00
Zn1      0.78280    0.21720    0.71720   1.00
Zn1      0.71720    0.28280    0.71720   1.00
Zn1      0.71720    0.21720    0.78280   1.00
Zn1      0.78280    0.28280    0.78280   1.00
O2       0.77350    0.22650    0.66180   1.00
O2       0.77350    0.16180    0.72650   1.00
O2       0.83820    0.22650    0.72650   1.00
O2       0.72650    0.27350    0.66180   1.00
O2       0.66180    0.27350    0.72650   1.00
O2       0.72650    0.33820    0.72650   1.00
O2       0.72650    0.16180    0.77350   1.00
O2       0.66180    0.22650    0.77350   1.00
O2       0.72650    0.22650    0.83820   1.00
O2       0.83820    0.27350    0.77350   1.00
O2       0.77350    0.33820    0.77350   1.00
O2       0.77350    0.27350    0.83820   1.00
C1       0.75000    0.25000    0.64480   1.00
C1       0.75000    0.14480    0.75000   1.00
C1       0.85520    0.25000    0.75000   1.00
C1       0.64480    0.25000    0.75000   1.00
C1       0.75000    0.35520    0.75000   1.00
C1       0.75000    0.25000    0.85520   1.00
O1       0.25000    0.75000    0.75000   1.00
Zn1      0.28280    0.71720    0.71720   1.00
Zn1      0.21720    0.78280    0.71720   1.00
Zn1      0.21720    0.71720    0.78280   1.00
Zn1      0.28280    0.78280    0.78280   1.00
O2       0.27350    0.72650    0.66180   1.00
O2       0.27350    0.66180    0.72650   1.00
O2       0.33820    0.72650    0.72650   1.00
O2       0.22650    0.77350    0.66180   1.00
O2       0.16180    0.77350    0.72650   1.00
O2       0.22650    0.83820    0.72650   1.00
O2       0.22650    0.66180    0.77350   1.00
O2       0.16180    0.72650    0.77350   1.00
O2       0.22650    0.72650    0.83820   1.00
O2       0.33820    0.77350    0.77350   1.00
O2       0.27350    0.83820    0.77350   1.00
O2       0.27350    0.77350    0.83820   1.00
C1       0.25000    0.75000    0.64480   1.00
C1       0.25000    0.64480    0.75000   1.00
C1       0.35520    0.75000    0.75000   1.00
C1       0.14480    0.75000    0.75000   1.00
C1       0.25000    0.85520    0.75000   1.00
C1       0.25000    0.75000    0.85520   1.00
O1       0.91500    0.91500    0.91500   1.00
Zn1      0.88220    0.94780    0.94780   1.00
Zn1      0.94780    0.88220    0.94780   1.00
Zn1      0.94780    0.94780    0.88220   1.00
Zn1      0.88220    0.88220    0.88220   1.00
O2       0.89150    0.93850    1.00320   1.00
O2       0.89150    1.00320    0.93850   1.00
O2       0.82680    0.93850    0.93850   1.00
O2       0.93850    0.89150    1.00320   1.00
O2       1.00320    0.89150    0.93850   1.00
O2       0.93850    0.82680    0.93850   1.00
O2       0.93850    1.00320    0.89150   1.00
O2       1.00320    0.93850    0.89150   1.00
O2       0.93850    0.93850    0.82680   1.00
O2       0.82680    0.89150    0.89150   1.00
O2       0.89150    0.82680    0.89150   1.00
O2       0.89150    0.89150    0.82680   1.00
C1       0.91500    0.91500    1.02020   1.00
C1       0.91500    1.02020    0.91500   1.00
C1       0.80980    0.91500    0.91500   1.00
C1       1.02020    0.91500    0.91500   1.00
C1       0.91500    0.80980    0.91500   1.00
C1       0.91500    0.91500    0.80980   1.00
O1       0.41500    0.41500    0.91500   1.00
Zn1      0.38220    0.44780    0.94780   1.00
Zn1      0.44780    0.38220    0.94780   1.00
Zn1      0.44780    0.44780    0.88220   1.00
Zn1      0.38220    0.38220    0.88220   1.00
O2       0.39150    0.43850    1.00320   1.00
O2       0.39150    0.50320    0.93850   1.00
O2       0.32680    0.43850    0.93850   1.00
O2       0.43850    0.39150    1.00320   1.00
O2       0.50320    0.39150    0.93850   1.00
O2       0.43850    0.32680    0.93850   1.00
O2       0.43850    0.50320    0.89150   1.00
O2       0.50320    0.43850    0.89150   1.00
O2       0.43850    0.43850    0.82680   1.00
O2       0.32680    0.39150    0.89150   1.00
O2       0.39150    0.32680    0.89150   1.00
O2       0.39150    0.39150    0.82680   1.00
C1       0.41500    0.41500    1.02020   1.00
C1       0.41500    0.52020    0.91500   1.00
C1       0.30980    0.41500    0.91500   1.00
C1       0.52020    0.41500    0.91500   1.00
C1       0.41500    0.30980    0.91500   1.00
C1       0.41500    0.41500    0.80980   1.00
O1       0.41500    0.91500    0.41500   1.00
Zn1      0.38220    0.94780    0.44780   1.00
Zn1      0.44780    0.88220    0.44780   1.00
Zn1      0.44780    0.94780    0.38220   1.00
Zn1      0.38220    0.88220    0.38220   1.00
O2       0.39150    0.93850    0.50320   1.00
O2       0.39150    1.00320    0.43850   1.00
O2       0.32680    0.93850    0.43850   1.00
O2       0.43850    0.89150    0.50320   1.00
O2       0.50320    0.89150    0.43850   1.00
O2       0.43850    0.82680    0.43850   1.00
O2       0.43850    1.00320    0.39150   1.00
O2       0.50320    0.93850    0.39150   1.00
O2       0.43850    0.93850    0.32680   1.00
O2       0.32680    0.89150    0.39150   1.00
O2       0.39150    0.82680    0.39150   1.00
O2       0.39150    0.89150    0.32680   1.00
C1       0.41500    0.91500    0.52020   1.00
C1       0.41500    1.02020    0.41500   1.00
C1       0.30980    0.91500    0.41500   1.00
C1       0.52020    0.91500    0.41500   1.00
C1       0.41500    0.80980    0.41500   1.00
C1       0.41500    0.91500    0.30980   1.00
O1       0.91500    0.41500    0.41500   1.00
Zn1      0.88220    0.44780    0.44780   1.00
Zn1      0.94780    0.38220    0.44780   1.00
Zn1      0.94780    0.44780    0.38220   1.00
Zn1      0.88220    0.38220    0.38220   1.00
O2       0.89150    0.43850    0.50320   1.00
O2       0.89150    0.50320    0.43850   1.00
O2       0.82680    0.43850    0.43850   1.00
O2       0.93850    0.39150    0.50320   1.00
O2       1.00320    0.39150    0.43850   1.00
O2       0.93850    0.32680    0.43850   1.00
O2       0.93850    0.50320    0.39150   1.00
O2       1.00320    0.43850    0.39150   1.00
O2       0.93850    0.43850    0.32680   1.00
O2       0.82680    0.39150    0.39150   1.00
O2       0.89150    0.32680    0.39150   1.00
O2       0.89150    0.39150    0.32680   1.00
C1       0.91500    0.41500    0.52020   1.00
C1       0.91500    0.52020    0.41500   1.00
C1       0.80980    0.41500    0.41500   1.00
C1       1.02020    0.41500    0.41500   1.00
C1       0.91500    0.30980    0.41500   1.00
C1       0.91500    0.41500    0.30980   1.00
O1       0.41500    0.41500    0.41500   1.00
Zn1      0.44780    0.38220    0.38220   1.00
Zn1      0.38220    0.44780    0.38220   1.00
Zn1      0.38220    0.38220    0.44780   1.00
Zn1      0.44780    0.44780    0.44780   1.00
O2       0.43850    0.39150    0.32680   1.00
O2       0.43850    0.32680    0.39150   1.00
O2       0.50320    0.39150    0.39150   1.00
O2       0.39150    0.43850    0.32680   1.00
O2       0.32680    0.43850    0.39150   1.00
O2       0.39150    0.50320    0.39150   1.00
O2       0.39150    0.32680    0.43850   1.00
O2       0.32680    0.39150    0.43850   1.00
O2       0.39150    0.39150    0.50320   1.00
O2       0.50320    0.43850    0.43850   1.00
O2       0.43850    0.50320    0.43850   1.00
O2       0.43850    0.43850    0.50320   1.00
C1       0.41500    0.41500    0.30980   1.00
C1       0.41500    0.30980    0.41500   1.00
C1       0.52020    0.41500    0.41500   1.00
C1       0.30980    0.41500    0.41500   1.00
C1       0.41500    0.52020    0.41500   1.00
C1       0.41500    0.41500    0.52020   1.00
O1       0.91500    0.91500    0.41500   1.00
Zn1      0.94780    0.88220    0.38220   1.00
Zn1      0.88220    0.94780    0.38220   1.00
Zn1      0.88220    0.88220    0.44780   1.00
Zn1      0.94780    0.94780    0.44780   1.00
O2       0.93850    0.89150    0.32680   1.00
O2       0.93850    0.82680    0.39150   1.00
O2       1.00320    0.89150    0.39150   1.00
O2       0.89150    0.93850    0.32680   1.00
O2       0.82680    0.93850    0.39150   1.00
O2       0.89150    1.00320    0.39150   1.00
O2       0.89150    0.82680    0.43850   1.00
O2       0.82680    0.89150    0.43850   1.00
O2       0.89150    0.89150    0.50320   1.00
O2       1.00320    0.93850    0.43850   1.00
O2       0.93850    1.00320    0.43850   1.00
O2       0.93850    0.93850    0.50320   1.00
C1       0.91500    0.91500    0.30980   1.00
C1       0.91500    0.80980    0.41500   1.00
C1       1.02020    0.91500    0.41500   1.00
C1       0.80980    0.91500    0.41500   1.00
C1       0.91500    1.02020    0.41500   1.00
C1       0.91500    0.91500    0.52020   1.00
O1       0.91500    0.41500    0.91500   1.00
Zn1      0.94780    0.38220    0.88220   1.00
Zn1      0.88220    0.44780    0.88220   1.00
Zn1      0.88220    0.38220    0.94780   1.00
Zn1      0.94780    0.44780    0.94780   1.00
O2       0.93850    0.39150    0.82680   1.00
O2       0.93850    0.32680    0.89150   1.00
O2       1.00320    0.39150    0.89150   1.00
O2       0.89150    0.43850    0.82680   1.00
O2       0.82680    0.43850    0.89150   1.00
O2       0.89150    0.50320    0.89150   1.00
O2       0.89150    0.32680    0.93850   1.00
O2       0.82680    0.39150    0.93850   1.00
O2       0.89150    0.39150    1.00320   1.00
O2       1.00320    0.43850    0.93850   1.00
O2       0.93850    0.50320    0.93850   1.00
O2       0.93850    0.43850    1.00320   1.00
C1       0.91500    0.41500    0.80980   1.00
C1       0.91500    0.30980    0.91500   1.00
C1       1.02020    0.41500    0.91500   1.00
C1       0.80980    0.41500    0.91500   1.00
C1       0.91500    0.52020    0.91500   1.00
C1       0.91500    0.41500    1.02020   1.00
O1       0.41500    0.91500    0.91500   1.00
Zn1      0.44780    0.88220    0.88220   1.00
Zn1      0.38220    0.94780    0.88220   1.00
Zn1      0.38220    0.88220    0.94780   1.00
Zn1      0.44780    0.94780    0.94780   1.00
O2       0.43850    0.89150    0.82680   1.00
O2       0.43850    0.82680    0.89150   1.00
O2       0.50320    0.89150    0.89150   1.00
O2       0.39150    0.93850    0.82680   1.00
O2       0.32680    0.93850    0.89150   1.00
O2       0.39150    1.00320    0.89150   1.00
O2       0.39150    0.82680    0.93850   1.00
O2       0.32680    0.89150    0.93850   1.00
O2       0.39150    0.89150    1.00320   1.00
O2       0.50320    0.93850    0.93850   1.00
O2       0.43850    1.00320    0.93850   1.00
O2       0.43850    0.93850    1.00320   1.00
C1       0.41500    0.91500    0.80980   1.00
C1       0.41500    0.80980    0.91500   1.00
C1       0.52020    0.91500    0.91500   1.00
C1       0.30980    0.91500    0.91500   1.00
C1       0.41500    1.02020    0.91500   1.00
C1       0.41500    0.91500    1.02020   1.00
C4       0.74960    0.75302    1.02084   1.00
C4       0.75019    0.75259    0.97912   1.00
C3       0.76411    0.78442    1.04364   1.00
C3       0.76850    0.78182    0.95616   1.00
C3       0.73425    0.72009    1.04123   1.00
C3       0.73143    0.72140    0.95886   1.00
C2       0.74913    0.75083    1.10512   1.00
C2       0.75087    0.74917    0.89488   1.00
C3       0.76410    0.78329    1.08462   1.00
C3       0.76853    0.78038    0.91519   1.00
C3       0.73383    0.71983    1.08258   1.00
C3       0.73324    0.71961    0.91762   1.00
H1       0.77499    0.80910    1.03115   1.00
H1       0.78257    0.80490    0.96852   1.00
C5       0.71926    0.68773    1.02020   1.00
C5       0.71128    0.69197    0.97980   1.00
H1       0.77524    0.80675    1.09955   1.00
H1       0.78194    0.80251    0.90010   1.00
H1       0.72174    0.69649    1.09680   1.00
H1       0.72184    0.69582    0.90368   1.00
O3       0.71058    0.65360    1.03961   1.00
O3       0.68665    0.66615    0.96099   1.00
Si1      0.74322    0.61900    1.04247   1.00
Si1      0.64159    0.67918    0.95279   1.00
C6       0.71759    0.58877    1.07538   1.00
C6       0.74669    0.59724    0.99598   1.00
C6       0.78796    0.63480    1.06253   1.00
C6       0.62691    0.72658    0.96693   1.00
C6       0.63717    0.67440    0.90198   1.00
C6       0.61132    0.64393    0.97477   1.00
C6       0.69972    0.60968    1.11194   1.00
H2       0.69259    0.57950    1.05791   1.00
C6       0.73631    0.55017    1.09147   1.00
H2       0.71807    0.60361    0.98358   1.00
C6       0.77706    0.61408    0.96634   1.00
C6       0.75137    0.55188    0.99336   1.00
H2       0.77842    0.65098    1.08831   1.00
C6       0.81665    0.60259    1.07772   1.00
C6       0.81476    0.66323    1.03849   1.00
C6       0.63192    0.73844    1.01071   1.00
C6       0.64033    0.76264    0.94225   1.00
H2       0.59544    0.72559    0.96212   1.00
H2       0.65506    0.69811    0.89051   1.00
C6       0.65450    0.63623    0.88378   1.00
C6       0.59559    0.67972    0.88393   1.00
H2       0.61081    0.61999    0.95375   1.00
C6       0.62668    0.62537    1.01336   1.00
C6       0.56761    0.65487    0.98244   1.00
H2       0.68067    0.63379    1.10346   1.00
H2       0.72256    0.62135    1.13090   1.00
H2       0.68190    0.58960    1.12917   1.00
H2       0.71368    0.52815    1.09608   1.00
H2       0.75783    0.53771    1.07178   1.00
H2       0.75058    0.55449    1.11964   1.00
H2       0.77071    0.60402    0.93672   1.00
H2       0.77643    0.64580    0.96532   1.00
H2       0.80663    0.60466    0.97352   1.00
H2       0.72780    0.53685    1.00862   1.00
H2       0.75016    0.54182    0.96308   1.00
H2       0.77930    0.54247    1.00550   1.00
H2       0.82258    0.58089    1.05514   1.00
H2       0.84461    0.61485    1.08708   1.00
H2       0.80504    0.58794    1.10332   1.00
H2       0.83447    0.64752    1.01902   1.00
H2       0.79862    0.68375    1.02068   1.00
H2       0.83291    0.68049    1.05828   1.00
H2       0.66144    0.74848    1.01688   1.00
H2       0.61220    0.76242    1.01809   1.00
H2       0.62523    0.71451    1.03048   1.00
H2       0.62457    0.78891    0.95125   1.00
H2       0.67127    0.76880    0.94574   1.00
H2       0.63434    0.75886    0.91122   1.00
H2       0.65640    0.63890    0.85202   1.00
H2       0.68407    0.63068    0.89435   1.00
H2       0.63665    0.61070    0.89035   1.00
H2       0.58162    0.70644    0.89416   1.00
H2       0.59745    0.68179    0.85212   1.00
H2       0.57665    0.65504    0.89085   1.00
H2       0.62994    0.64689    1.03656   1.00
H2       0.60737    0.60226    1.02381   1.00
H2       0.65503    0.61216    1.00834   1.00
H2       0.55069    0.62901    0.99044   1.00
H2       0.56487    0.67593    1.00622   1.00
H2       0.55382    0.66720    0.95657   1.00
C4       0.75302    1.02084    0.74960   1.00
C4       0.75259    0.97912    0.75019   1.00
C3       0.78442    1.04364    0.76411   1.00
C3       0.78182    0.95616    0.76850   1.00
C3       0.72009    1.04123    0.73425   1.00
C3       0.72140    0.95886    0.73143   1.00
C2       0.75083    1.10512    0.74913   1.00
C2       0.74917    0.89488    0.75087   1.00
C3       0.78329    1.08462    0.76410   1.00
C3       0.78038    0.91519    0.76853   1.00
C3       0.71983    1.08258    0.73383   1.00
C3       0.71961    0.91762    0.73324   1.00
H1       0.80910    1.03115    0.77499   1.00
H1       0.80490    0.96852    0.78257   1.00
C5       0.68773    1.02020    0.71926   1.00
C5       0.69197    0.97980    0.71128   1.00
H1       0.80675    1.09955    0.77524   1.00
H1       0.80251    0.90010    0.78194   1.00
H1       0.69649    1.09680    0.72174   1.00
H1       0.69582    0.90368    0.72184   1.00
O3       0.65360    1.03961    0.71058   1.00
O3       0.66615    0.96099    0.68665   1.00
Si1      0.61900    1.04247    0.74322   1.00
Si1      0.67918    0.95279    0.64159   1.00
C6       0.58877    1.07538    0.71759   1.00
C6       0.59724    0.99598    0.74669   1.00
C6       0.63480    1.06253    0.78796   1.00
C6       0.72658    0.96693    0.62691   1.00
C6       0.67440    0.90198    0.63717   1.00
C6       0.64393    0.97477    0.61132   1.00
C6       0.60968    1.11194    0.69972   1.00
H2       0.57950    1.05791    0.69259   1.00
C6       0.55017    1.09147    0.73631   1.00
H2       0.60361    0.98358    0.71807   1.00
C6       0.61408    0.96634    0.77706   1.00
C6       0.55188    0.99336    0.75137   1.00
H2       0.65098    1.08831    0.77842   1.00
C6       0.60259    1.07772    0.81665   1.00
C6       0.66323    1.03849    0.81476   1.00
C6       0.73844    1.01071    0.63192   1.00
C6       0.76264    0.94225    0.64033   1.00
H2       0.72559    0.96212    0.59544   1.00
H2       0.69811    0.89051    0.65506   1.00
C6       0.63623    0.88378    0.65450   1.00
C6       0.67972    0.88393    0.59559   1.00
H2       0.61999    0.95375    0.61081   1.00
C6       0.62537    1.01336    0.62668   1.00
C6       0.65487    0.98244    0.56761   1.00
H2       0.63379    1.10346    0.68067   1.00
H2       0.62135    1.13090    0.72256   1.00
H2       0.58960    1.12917    0.68190   1.00
H2       0.52815    1.09608    0.71368   1.00
H2       0.53771    1.07178    0.75783   1.00
H2       0.55449    1.11964    0.75058   1.00
H2       0.60402    0.93672    0.77071   1.00
H2       0.64580    0.96532    0.77643   1.00
H2       0.60466    0.97352    0.80663   1.00
H2       0.53685    1.00862    0.72780   1.00
H2       0.54182    0.96308    0.75016   1.00
H2       0.54247    1.00550    0.77930   1.00
H2       0.58089    1.05514    0.82258   1.00
H2       0.61485    1.08708    0.84461   1.00
H2       0.58794    1.10332    0.80504   1.00
H2       0.64752    1.01902    0.83447   1.00
H2       0.68375    1.02068    0.79862   1.00
H2       0.68049    1.05828    0.83291   1.00
H2       0.74848    1.01688    0.66144   1.00
H2       0.76242    1.01809    0.61220   1.00
H2       0.71451    1.03048    0.62523   1.00
H2       0.78891    0.95125    0.62457   1.00
H2       0.76880    0.94574    0.67127   1.00
H2       0.75886    0.91122    0.63434   1.00
H2       0.63890    0.85202    0.65640   1.00
H2       0.63068    0.89435    0.68407   1.00
H2       0.61070    0.89035    0.63665   1.00
H2       0.70644    0.89416    0.58162   1.00
H2       0.68179    0.85212    0.59745   1.00
H2       0.65504    0.89085    0.57665   1.00
H2       0.64689    1.03656    0.62994   1.00
H2       0.60226    1.02381    0.60737   1.00
H2       0.61216    1.00834    0.65503   1.00
H2       0.62901    0.99044    0.55069   1.00
H2       0.67593    1.00622    0.56487   1.00
H2       0.66720    0.95657    0.55382   1.00
C4       0.47916    0.74960    0.74698   1.00
C4       0.52088    0.75019    0.74741   1.00
C3       0.45636    0.76411    0.71558   1.00
C3       0.54384    0.76850    0.71818   1.00
C3       0.45877    0.73425    0.77991   1.00
C3       0.54114    0.73143    0.77860   1.00
C2       0.39488    0.74913    0.74917   1.00
C2       0.60512    0.75087    0.75083   1.00
C3       0.41538    0.76410    0.71671   1.00
C3       0.58481    0.76853    0.71962   1.00
C3       0.41742    0.73383    0.78017   1.00
C3       0.58238    0.73324    0.78039   1.00
H1       0.46885    0.77499    0.69090   1.00
H1       0.53148    0.78257    0.69510   1.00
C5       0.47980    0.71926    0.81227   1.00
C5       0.52020    0.71128    0.80803   1.00
H1       0.40045    0.77524    0.69325   1.00
H1       0.59990    0.78194    0.69749   1.00
H1       0.40320    0.72174    0.80351   1.00
H1       0.59632    0.72184    0.80418   1.00
O3       0.46039    0.71058    0.84640   1.00
O3       0.53901    0.68665    0.83385   1.00
Si1      0.45753    0.74322    0.88100   1.00
Si1      0.54721    0.64159    0.82082   1.00
C6       0.42462    0.71759    0.91123   1.00
C6       0.50402    0.74669    0.90276   1.00
C6       0.43747    0.78796    0.86520   1.00
C6       0.53307    0.62691    0.77342   1.00
C6       0.59802    0.63717    0.82560   1.00
C6       0.52523    0.61132    0.85607   1.00
C6       0.38806    0.69972    0.89032   1.00
H2       0.44209    0.69259    0.92050   1.00
C6       0.40853    0.73631    0.94983   1.00
H2       0.51642    0.71807    0.89639   1.00
C6       0.53366    0.77706    0.88592   1.00
C6       0.50664    0.75137    0.94812   1.00
H2       0.41169    0.77842    0.84902   1.00
C6       0.42228    0.81665    0.89741   1.00
C6       0.46151    0.81476    0.83677   1.00
C6       0.48929    0.63192    0.76156   1.00
C6       0.55775    0.64033    0.73736   1.00
H2       0.53788    0.59544    0.77441   1.00
H2       0.60949    0.65506    0.80189   1.00
C6       0.61622    0.65450    0.86377   1.00
C6       0.61607    0.59559    0.82028   1.00
H2       0.54625    0.61081    0.88001   1.00
C6       0.48664    0.62668    0.87463   1.00
C6       0.51756    0.56761    0.84513   1.00
H2       0.39654    0.68067    0.86621   1.00
H2       0.36910    0.72256    0.87865   1.00
H2       0.37083    0.68190    0.91040   1.00
H2       0.40392    0.71368    0.97185   1.00
H2       0.42822    0.75783    0.96229   1.00
H2       0.38036    0.75058    0.94551   1.00
H2       0.56328    0.77071    0.89598   1.00
H2       0.53468    0.77643    0.85420   1.00
H2       0.52648    0.80663    0.89534   1.00
H2       0.49138    0.72780    0.96315   1.00
H2       0.53692    0.75016    0.95818   1.00
H2       0.49450    0.77930    0.95753   1.00
H2       0.44486    0.82258    0.91911   1.00
H2       0.41292    0.84461    0.88515   1.00
H2       0.39668    0.80504    0.91206   1.00
H2       0.48098    0.83447    0.85248   1.00
H2       0.47932    0.79862    0.81625   1.00
H2       0.44172    0.83291    0.81951   1.00
H2       0.48312    0.66144    0.75152   1.00
H2       0.48191    0.61220    0.73758   1.00
H2       0.46952    0.62523    0.78549   1.00
H2       0.54875    0.62457    0.71109   1.00
H2       0.55426    0.67127    0.73120   1.00
H2       0.58878    0.63434    0.74114   1.00
H2       0.64798    0.65640    0.86110   1.00
H2       0.60565    0.68407    0.86932   1.00
H2       0.60965    0.63665    0.88930   1.00
H2       0.60584    0.58162    0.79356   1.00
H2       0.64788    0.59745    0.81821   1.00
H2       0.60915    0.57665    0.84496   1.00
H2       0.46344    0.62994    0.85311   1.00
H2       0.47619    0.60737    0.89774   1.00
H2       0.49166    0.65503    0.88784   1.00
H2       0.50956    0.55069    0.87099   1.00
H2       0.49378    0.56487    0.82407   1.00
H2       0.54343    0.55382    0.83280   1.00
C4       1.02084    0.74960    0.75302   1.00
C4       0.97912    0.75019    0.75259   1.00
C3       1.04364    0.76411    0.78442   1.00
C3       0.95616    0.76850    0.78182   1.00
C3       1.04123    0.73425    0.72009   1.00
C3       0.95886    0.73143    0.72140   1.00
C2       1.10512    0.74913    0.75083   1.00
C2       0.89488    0.75087    0.74917   1.00
C3       1.08462    0.76410    0.78329   1.00
C3       0.91519    0.76853    0.78038   1.00
C3       1.08258    0.73383    0.71983   1.00
C3       0.91762    0.73324    0.71961   1.00
H1       1.03115    0.77499    0.80910   1.00
H1       0.96852    0.78257    0.80490   1.00
C5       1.02020    0.71926    0.68773   1.00
C5       0.97980    0.71128    0.69197   1.00
H1       1.09955    0.77524    0.80675   1.00
H1       0.90010    0.78194    0.80251   1.00
H1       1.09680    0.72174    0.69649   1.00
H1       0.90368    0.72184    0.69582   1.00
O3       1.03961    0.71058    0.65360   1.00
O3       0.96099    0.68665    0.66615   1.00
Si1      1.04247    0.74322    0.61900   1.00
Si1      0.95279    0.64159    0.67918   1.00
C6       1.07538    0.71759    0.58877   1.00
C6       0.99598    0.74669    0.59724   1.00
C6       1.06253    0.78796    0.63480   1.00
C6       0.96693    0.62691    0.72658   1.00
C6       0.90198    0.63717    0.67440   1.00
C6       0.97477    0.61132    0.64393   1.00
C6       1.11194    0.69972    0.60968   1.00
H2       1.05791    0.69259    0.57950   1.00
C6       1.09147    0.73631    0.55017   1.00
H2       0.98358    0.71807    0.60361   1.00
C6       0.96634    0.77706    0.61408   1.00
C6       0.99336    0.75137    0.55188   1.00
H2       1.08831    0.77842    0.65098   1.00
C6       1.07772    0.81665    0.60259   1.00
C6       1.03849    0.81476    0.66323   1.00
C6       1.01071    0.63192    0.73844   1.00
C6       0.94225    0.64033    0.76264   1.00
H2       0.96212    0.59544    0.72559   1.00
H2       0.89051    0.65506    0.69811   1.00
C6       0.88378    0.65450    0.63623   1.00
C6       0.88393    0.59559    0.67972   1.00
H2       0.95375    0.61081    0.61999   1.00
C6       1.01336    0.62668    0.62537   1.00
C6       0.98244    0.56761    0.65487   1.00
H2       1.10346    0.68067    0.63379   1.00
H2       1.13090    0.72256    0.62135   1.00
H2       1.12917    0.68190    0.58960   1.00
H2       1.09608    0.71368    0.52815   1.00
H2       1.07178    0.75783    0.53771   1.00
H2       1.11964    0.75058    0.55449   1.00
H2       0.93672    0.77071    0.60402   1.00
H2       0.96532    0.77643    0.64580   1.00
H2       0.97352    0.80663    0.60466   1.00
H2       1.00862    0.72780    0.53685   1.00
H2       0.96308    0.75016    0.54182   1.00
H2       1.00550    0.77930    0.54247   1.00
H2       1.05514    0.82258    0.58089   1.00
H2       1.08708    0.84461    0.61485   1.00
H2       1.10332    0.80504    0.58794   1.00
H2       1.01902    0.83447    0.64752   1.00
H2       1.02068    0.79862    0.68375   1.00
H2       1.05828    0.83291    0.68049   1.00
H2       1.01688    0.66144    0.74848   1.00
H2       1.01809    0.61220    0.76242   1.00
H2       1.03048    0.62523    0.71451   1.00
H2       0.95125    0.62457    0.78891   1.00
H2       0.94574    0.67127    0.76880   1.00
H2       0.91122    0.63434    0.75886   1.00
H2       0.85202    0.65640    0.63890   1.00
H2       0.89435    0.68407    0.63068   1.00
H2       0.89035    0.63665    0.61070   1.00
H2       0.89416    0.58162    0.70644   1.00
H2       0.85212    0.59745    0.68179   1.00
H2       0.89085    0.57665    0.65504   1.00
H2       1.03656    0.62994    0.64689   1.00
H2       1.02381    0.60737    0.60226   1.00
H2       1.00834    0.65503    0.61216   1.00
H2       0.99044    0.55069    0.62901   1.00
H2       1.00622    0.56487    0.67593   1.00
H2       0.95657    0.55382    0.66720   1.00
C4       0.74698    0.47916    0.74960   1.00
C4       0.74741    0.52088    0.75019   1.00
C3       0.71558    0.45636    0.76411   1.00
C3       0.71818    0.54384    0.76850   1.00
C3       0.77991    0.45877    0.73425   1.00
C3       0.77860    0.54114    0.73143   1.00
C2       0.74917    0.39488    0.74913   1.00
C2       0.75083    0.60512    0.75087   1.00
C3       0.71671    0.41538    0.76410   1.00
C3       0.71962    0.58481    0.76853   1.00
C3       0.78017    0.41742    0.73383   1.00
C3       0.78039    0.58238    0.73324   1.00
H1       0.69090    0.46885    0.77499   1.00
H1       0.69510    0.53148    0.78257   1.00
C5       0.81227    0.47980    0.71926   1.00
C5       0.80803    0.52020    0.71128   1.00
H1       0.69325    0.40045    0.77524   1.00
H1       0.69749    0.59990    0.78194   1.00
H1       0.80351    0.40320    0.72174   1.00
H1       0.80418    0.59632    0.72184   1.00
O3       0.84640    0.46039    0.71058   1.00
O3       0.83385    0.53901    0.68665   1.00
Si1      0.88100    0.45753    0.74322   1.00
Si1      0.82082    0.54721    0.64159   1.00
C6       0.91123    0.42462    0.71759   1.00
C6       0.90276    0.50402    0.74669   1.00
C6       0.86520    0.43747    0.78796   1.00
C6       0.77342    0.53307    0.62691   1.00
C6       0.82560    0.59802    0.63717   1.00
C6       0.85607    0.52523    0.61132   1.00
C6       0.89032    0.38806    0.69972   1.00
H2       0.92050    0.44209    0.69259   1.00
C6       0.94983    0.40853    0.73631   1.00
H2       0.89639    0.51642    0.71807   1.00
C6       0.88592    0.53366    0.77706   1.00
C6       0.94812    0.50664    0.75137   1.00
H2       0.84902    0.41169    0.77842   1.00
C6       0.89741    0.42228    0.81665   1.00
C6       0.83677    0.46151    0.81476   1.00
C6       0.76156    0.48929    0.63192   1.00
C6       0.73736    0.55775    0.64033   1.00
H2       0.77441    0.53788    0.59544   1.00
H2       0.80189    0.60949    0.65506   1.00
C6       0.86377    0.61622    0.65450   1.00
C6       0.82028    0.61607    0.59559   1.00
H2       0.88001    0.54625    0.61081   1.00
C6       0.87463    0.48664    0.62668   1.00
C6       0.84513    0.51756    0.56761   1.00
H2       0.86621    0.39654    0.68067   1.00
H2       0.87865    0.36910    0.72256   1.00
H2       0.91040    0.37083    0.68190   1.00
H2       0.97185    0.40392    0.71368   1.00
H2       0.96229    0.42822    0.75783   1.00
H2       0.94551    0.38036    0.75058   1.00
H2       0.89598    0.56328    0.77071   1.00
H2       0.85420    0.53468    0.77643   1.00
H2       0.89534    0.52648    0.80663   1.00
H2       0.96315    0.49138    0.72780   1.00
H2       0.95818    0.53692    0.75016   1.00
H2       0.95753    0.49450    0.77930   1.00
H2       0.91911    0.44486    0.82258   1.00
H2       0.88515    0.41292    0.84461   1.00
H2       0.91206    0.39668    0.80504   1.00
H2       0.85248    0.48098    0.83447   1.00
H2       0.81625    0.47932    0.79862   1.00
H2       0.81951    0.44172    0.83291   1.00
H2       0.75152    0.48312    0.66144   1.00
H2       0.73758    0.48191    0.61220   1.00
H2       0.78549    0.46952    0.62523   1.00
H2       0.71109    0.54875    0.62457   1.00
H2       0.73120    0.55426    0.67127   1.00
H2       0.74114    0.58878    0.63434   1.00
H2       0.86110    0.64798    0.65640   1.00
H2       0.86932    0.60565    0.68407   1.00
H2       0.88930    0.60965    0.63665   1.00
H2       0.79356    0.60584    0.58162   1.00
H2       0.81821    0.64788    0.59745   1.00
H2       0.84496    0.60915    0.57665   1.00
H2       0.85311    0.46344    0.62994   1.00
H2       0.89774    0.47619    0.60737   1.00
H2       0.88784    0.49166    0.65503   1.00
H2       0.87099    0.50956    0.55069   1.00
H2       0.82407    0.49378    0.56487   1.00
H2       0.83280    0.54343    0.55382   1.00
C4       0.74960    0.74698    0.47916   1.00
C4       0.75019    0.74741    0.52088   1.00
C3       0.76411    0.71558    0.45636   1.00
C3       0.76850    0.71818    0.54384   1.00
C3       0.73425    0.77991    0.45877   1.00
C3       0.73143    0.77860    0.54114   1.00
C2       0.74913    0.74917    0.39488   1.00
C2       0.75087    0.75083    0.60512   1.00
C3       0.76410    0.71671    0.41538   1.00
C3       0.76853    0.71962    0.58481   1.00
C3       0.73383    0.78017    0.41742   1.00
C3       0.73324    0.78039    0.58238   1.00
H1       0.77499    0.69090    0.46885   1.00
H1       0.78257    0.69510    0.53148   1.00
C5       0.71926    0.81227    0.47980   1.00
C5       0.71128    0.80803    0.52020   1.00
H1       0.77524    0.69325    0.40045   1.00
H1       0.78194    0.69749    0.59990   1.00
H1       0.72174    0.80351    0.40320   1.00
H1       0.72184    0.80418    0.59632   1.00
O3       0.71058    0.84640    0.46039   1.00
O3       0.68665    0.83385    0.53901   1.00
Si1      0.74322    0.88100    0.45753   1.00
Si1      0.64159    0.82082    0.54721   1.00
C6       0.71759    0.91123    0.42462   1.00
C6       0.74669    0.90276    0.50402   1.00
C6       0.78796    0.86520    0.43747   1.00
C6       0.62691    0.77342    0.53307   1.00
C6       0.63717    0.82560    0.59802   1.00
C6       0.61132    0.85607    0.52523   1.00
C6       0.69972    0.89032    0.38806   1.00
H2       0.69259    0.92050    0.44209   1.00
C6       0.73631    0.94983    0.40853   1.00
H2       0.71807    0.89639    0.51642   1.00
C6       0.77706    0.88592    0.53366   1.00
C6       0.75137    0.94812    0.50664   1.00
H2       0.77842    0.84902    0.41169   1.00
C6       0.81665    0.89741    0.42228   1.00
C6       0.81476    0.83677    0.46151   1.00
C6       0.63192    0.76156    0.48929   1.00
C6       0.64033    0.73736    0.55775   1.00
H2       0.59544    0.77441    0.53788   1.00
H2       0.65506    0.80189    0.60949   1.00
C6       0.65450    0.86377    0.61622   1.00
C6       0.59559    0.82028    0.61607   1.00
H2       0.61081    0.88001    0.54625   1.00
C6       0.62668    0.87463    0.48664   1.00
C6       0.56761    0.84513    0.51756   1.00
H2       0.68067    0.86621    0.39654   1.00
H2       0.72256    0.87865    0.36910   1.00
H2       0.68190    0.91040    0.37083   1.00
H2       0.71368    0.97185    0.40392   1.00
H2       0.75783    0.96229    0.42822   1.00
H2       0.75058    0.94551    0.38036   1.00
H2       0.77071    0.89598    0.56328   1.00
H2       0.77643    0.85420    0.53468   1.00
H2       0.80663    0.89534    0.52648   1.00
H2       0.72780    0.96315    0.49138   1.00
H2       0.75016    0.95818    0.53692   1.00
H2       0.77930    0.95753    0.49450   1.00
H2       0.82258    0.91911    0.44486   1.00
H2       0.84461    0.88515    0.41292   1.00
H2       0.80504    0.91206    0.39668   1.00
H2       0.83447    0.85248    0.48098   1.00
H2       0.79862    0.81625    0.47932   1.00
H2       0.83291    0.81951    0.44172   1.00
H2       0.66144    0.75152    0.48312   1.00
H2       0.61220    0.73758    0.48191   1.00
H2       0.62523    0.78549    0.46952   1.00
H2       0.62457    0.71109    0.54875   1.00
H2       0.67127    0.73120    0.55426   1.00
H2       0.63434    0.74114    0.58878   1.00
H2       0.65640    0.86110    0.64798   1.00
H2       0.68407    0.86932    0.60565   1.00
H2       0.63665    0.88930    0.60965   1.00
H2       0.58162    0.79356    0.60584   1.00
H2       0.59745    0.81821    0.64788   1.00
H2       0.57665    0.84496    0.60915   1.00
H2       0.62994    0.85311    0.46344   1.00
H2       0.60737    0.89774    0.47619   1.00
H2       0.65503    0.88784    0.49166   1.00
H2       0.55069    0.87099    0.50956   1.00
H2       0.56487    0.82407    0.49378   1.00
H2       0.55382    0.83280    0.54343   1.00
C4       0.24960    0.25302    1.02084   1.00
C4       0.25019    0.25259    0.97912   1.00
C3       0.26411    0.28442    1.04364   1.00
C3       0.26850    0.28182    0.95616   1.00
C3       0.23425    0.22009    1.04123   1.00
C3       0.23143    0.22140    0.95886   1.00
C2       0.24913    0.25083    1.10512   1.00
C2       0.25087    0.24917    0.89488   1.00
C3       0.26410    0.28329    1.08462   1.00
C3       0.26853    0.28038    0.91519   1.00
C3       0.23383    0.21983    1.08258   1.00
C3       0.23324    0.21961    0.91762   1.00
H1       0.27499    0.30910    1.03115   1.00
H1       0.28257    0.30490    0.96852   1.00
C5       0.21926    0.18773    1.02020   1.00
C5       0.21128    0.19197    0.97980   1.00
H1       0.27524    0.30675    1.09955   1.00
H1       0.28194    0.30251    0.90010   1.00
H1       0.22174    0.19649    1.09680   1.00
H1       0.22184    0.19582    0.90368   1.00
O3       0.21058    0.15360    1.03961   1.00
O3       0.18665    0.16615    0.96099   1.00
Si1      0.24322    0.11900    1.04247   1.00
Si1      0.14159    0.17918    0.95279   1.00
C6       0.21759    0.08877    1.07538   1.00
C6       0.24669    0.09724    0.99598   1.00
C6       0.28796    0.13480    1.06253   1.00
C6       0.12691    0.22658    0.96693   1.00
C6       0.13717    0.17440    0.90198   1.00
C6       0.11132    0.14393    0.97477   1.00
C6       0.19972    0.10968    1.11194   1.00
H2       0.19259    0.07950    1.05791   1.00
C6       0.23631    0.05017    1.09147   1.00
H2       0.21807    0.10361    0.98358   1.00
C6       0.27706    0.11408    0.96634   1.00
C6       0.25137    0.05188    0.99336   1.00
H2       0.27842    0.15098    1.08831   1.00
C6       0.31665    0.10259    1.07772   1.00
C6       0.31476    0.16323    1.03849   1.00
C6       0.13192    0.23844    1.01071   1.00
C6       0.14033    0.26264    0.94225   1.00
H2       0.09544    0.22559    0.96212   1.00
H2       0.15506    0.19811    0.89051   1.00
C6       0.15450    0.13623    0.88378   1.00
C6       0.09559    0.17972    0.88393   1.00
H2       0.11081    0.11999    0.95375   1.00
C6       0.12668    0.12537    1.01336   1.00
C6       0.06761    0.15487    0.98244   1.00
H2       0.18067    0.13379    1.10346   1.00
H2       0.22256    0.12135    1.13090   1.00
H2       0.18190    0.08960    1.12917   1.00
H2       0.21368    0.02815    1.09608   1.00
H2       0.25783    0.03771    1.07178   1.00
H2       0.25058    0.05449    1.11964   1.00
H2       0.27071    0.10402    0.93672   1.00
H2       0.27643    0.14580    0.96532   1.00
H2       0.30663    0.10466    0.97352   1.00
H2       0.22780    0.03685    1.00862   1.00
H2       0.25016    0.04182    0.96308   1.00
H2       0.27930    0.04247    1.00550   1.00
H2       0.32258    0.08089    1.05514   1.00
H2       0.34461    0.11485    1.08708   1.00
H2       0.30504    0.08794    1.10332   1.00
H2       0.33447    0.14752    1.01902   1.00
H2       0.29862    0.18375    1.02068   1.00
H2       0.33291    0.18049    1.05828   1.00
H2       0.16144    0.24848    1.01688   1.00
H2       0.11220    0.26242    1.01809   1.00
H2       0.12523    0.21451    1.03048   1.00
H2       0.12457    0.28891    0.95125   1.00
H2       0.17127    0.26880    0.94574   1.00
H2       0.13434    0.25886    0.91122   1.00
H2       0.15640    0.13890    0.85202   1.00
H2       0.18407    0.13068    0.89435   1.00
H2       0.13665    0.11070    0.89035   1.00
H2       0.08162    0.20644    0.89416   1.00
H2       0.09745    0.18179    0.85212   1.00
H2       0.07665    0.15504    0.89085   1.00
H2       0.12994    0.14689    1.03656   1.00
H2       0.10737    0.10226    1.02381   1.00
H2       0.15503    0.11216    1.00834   1.00
H2       0.05069    0.12901    0.99044   1.00
H2       0.06487    0.17593    1.00622   1.00
H2       0.05382    0.16720    0.95657   1.00
C4       0.25302    0.52084    0.74960   1.00
C4       0.25259    0.47912    0.75019   1.00
C3       0.28442    0.54364    0.76411   1.00
C3       0.28182    0.45616    0.76850   1.00
C3       0.22009    0.54123    0.73425   1.00
C3       0.22140    0.45886    0.73143   1.00
C2       0.25083    0.60512    0.74913   1.00
C2       0.24917    0.39488    0.75087   1.00
C3       0.28329    0.58462    0.76410   1.00
C3       0.28038    0.41519    0.76853   1.00
C3       0.21983    0.58258    0.73383   1.00
C3       0.21961    0.41762    0.73324   1.00
H1       0.30910    0.53115    0.77499   1.00
H1       0.30490    0.46852    0.78257   1.00
C5       0.18773    0.52020    0.71926   1.00
C5       0.19197    0.47980    0.71128   1.00
H1       0.30675    0.59955    0.77524   1.00
H1       0.30251    0.40010    0.78194   1.00
H1       0.19649    0.59680    0.72174   1.00
H1       0.19582    0.40368    0.72184   1.00
O3       0.15360    0.53961    0.71058   1.00
O3       0.16615    0.46099    0.68665   1.00
Si1      0.11900    0.54247    0.74322   1.00
Si1      0.17918    0.45279    0.64159   1.00
C6       0.08877    0.57538    0.71759   1.00
C6       0.09724    0.49598    0.74669   1.00
C6       0.13480    0.56253    0.78796   1.00
C6       0.22658    0.46693    0.62691   1.00
C6       0.17440    0.40198    0.63717   1.00
C6       0.14393    0.47477    0.61132   1.00
C6       0.10968    0.61194    0.69972   1.00
H2       0.07950    0.55791    0.69259   1.00
C6       0.05017    0.59147    0.73631   1.00
H2       0.10361    0.48358    0.71807   1.00
C6       0.11408    0.46634    0.77706   1.00
C6       0.05188    0.49336    0.75137   1.00
H2       0.15098    0.58831    0.77842   1.00
C6       0.10259    0.57772    0.81665   1.00
C6       0.16323    0.53849    0.81476   1.00
C6       0.23844    0.51071    0.63192   1.00
C6       0.26264    0.44225    0.64033   1.00
H2       0.22559    0.46212    0.59544   1.00
H2       0.19811    0.39051    0.65506   1.00
C6       0.13623    0.38378    0.65450   1.00
C6       0.17972    0.38393    0.59559   1.00
H2       0.11999    0.45375    0.61081   1.00
C6       0.12537    0.51336    0.62668   1.00
C6       0.15487    0.48244    0.56761   1.00
H2       0.13379    0.60346    0.68067   1.00
H2       0.12135    0.63090    0.72256   1.00
H2       0.08960    0.62917    0.68190   1.00
H2       0.02815    0.59608    0.71368   1.00
H2       0.03771    0.57178    0.75783   1.00
H2       0.05449    0.61964    0.75058   1.00
H2       0.10402    0.43672    0.77071   1.00
H2       0.14580    0.46532    0.77643   1.00
H2       0.10466    0.47352    0.80663   1.00
H2       0.03685    0.50862    0.72780   1.00
H2       0.04182    0.46308    0.75016   1.00
H2       0.04247    0.50550    0.77930   1.00
H2       0.08089    0.55514    0.82258   1.00
H2       0.11485    0.58708    0.84461   1.00
H2       0.08794    0.60332    0.80504   1.00
H2       0.14752    0.51902    0.83447   1.00
H2       0.18375    0.52068    0.79862   1.00
H2       0.18049    0.55828    0.83291   1.00
H2       0.24848    0.51688    0.66144   1.00
H2       0.26242    0.51809    0.61220   1.00
H2       0.21451    0.53048    0.62523   1.00
H2       0.28891    0.45125    0.62457   1.00
H2       0.26880    0.44574    0.67127   1.00
H2       0.25886    0.41122    0.63434   1.00
H2       0.13890    0.35202    0.65640   1.00
H2       0.13068    0.39435    0.68407   1.00
H2       0.11070    0.39035    0.63665   1.00
H2       0.20644    0.39416    0.58162   1.00
H2       0.18179    0.35212    0.59745   1.00
H2       0.15504    0.39085    0.57665   1.00
H2       0.14689    0.53656    0.62994   1.00
H2       0.10226    0.52381    0.60737   1.00
H2       0.11216    0.50834    0.65503   1.00
H2       0.12901    0.49044    0.55069   1.00
H2       0.17593    0.50622    0.56487   1.00
H2       0.16720    0.45657    0.55382   1.00
C4       -0.02084   0.24960    0.74698   1.00
C4       0.02088    0.25019    0.74741   1.00
C3       -0.04364   0.26411    0.71558   1.00
C3       0.04384    0.26850    0.71818   1.00
C3       -0.04123   0.23425    0.77991   1.00
C3       0.04114    0.23143    0.77860   1.00
C2       -0.10512   0.24913    0.74917   1.00
C2       0.10512    0.25087    0.75083   1.00
C3       -0.08462   0.26410    0.71671   1.00
C3       0.08481    0.26853    0.71962   1.00
C3       -0.08258   0.23383    0.78017   1.00
C3       0.08238    0.23324    0.78039   1.00
H1       -0.03115   0.27499    0.69090   1.00
H1       0.03148    0.28257    0.69510   1.00
C5       -0.02020   0.21926    0.81227   1.00
C5       0.02020    0.21128    0.80803   1.00
H1       -0.09955   0.27524    0.69325   1.00
H1       0.09990    0.28194    0.69749   1.00
H1       -0.09680   0.22174    0.80351   1.00
H1       0.09632    0.22184    0.80418   1.00
O3       -0.03961   0.21058    0.84640   1.00
O3       0.03901    0.18665    0.83385   1.00
Si1      -0.04247   0.24322    0.88100   1.00
Si1      0.04721    0.14159    0.82082   1.00
C6       -0.07538   0.21759    0.91123   1.00
C6       0.00402    0.24669    0.90276   1.00
C6       -0.06253   0.28796    0.86520   1.00
C6       0.03307    0.12691    0.77342   1.00
C6       0.09802    0.13717    0.82560   1.00
C6       0.02523    0.11132    0.85607   1.00
C6       -0.11194   0.19972    0.89032   1.00
H2       -0.05791   0.19259    0.92050   1.00
C6       -0.09147   0.23631    0.94983   1.00
H2       0.01642    0.21807    0.89639   1.00
C6       0.03366    0.27706    0.88592   1.00
C6       0.00664    0.25137    0.94812   1.00
H2       -0.08831   0.27842    0.84902   1.00
C6       -0.07772   0.31665    0.89741   1.00
C6       -0.03849   0.31476    0.83677   1.00
C6       -0.01071   0.13192    0.76156   1.00
C6       0.05775    0.14033    0.73736   1.00
H2       0.03788    0.09544    0.77441   1.00
H2       0.10949    0.15506    0.80189   1.00
C6       0.11622    0.15450    0.86377   1.00
C6       0.11607    0.09559    0.82028   1.00
H2       0.04625    0.11081    0.88001   1.00
C6       -0.01336   0.12668    0.87463   1.00
C6       0.01756    0.06761    0.84513   1.00
H2       -0.10346   0.18067    0.86621   1.00
H2       -0.13090   0.22256    0.87865   1.00
H2       -0.12917   0.18190    0.91040   1.00
H2       -0.09608   0.21368    0.97185   1.00
H2       -0.07178   0.25783    0.96229   1.00
H2       -0.11964   0.25058    0.94551   1.00
H2       0.06328    0.27071    0.89598   1.00
H2       0.03468    0.27643    0.85420   1.00
H2       0.02648    0.30663    0.89534   1.00
H2       -0.00862   0.22780    0.96315   1.00
H2       0.03692    0.25016    0.95818   1.00
H2       -0.00550   0.27930    0.95753   1.00
H2       -0.05514   0.32258    0.91911   1.00
H2       -0.08708   0.34461    0.88515   1.00
H2       -0.10332   0.30504    0.91206   1.00
H2       -0.01902   0.33447    0.85248   1.00
H2       -0.02068   0.29862    0.81625   1.00
H2       -0.05828   0.33291    0.81951   1.00
H2       -0.01688   0.16144    0.75152   1.00
H2       -0.01809   0.11220    0.73758   1.00
H2       -0.03048   0.12523    0.78549   1.00
H2       0.04875    0.12457    0.71109   1.00
H2       0.05426    0.17127    0.73120   1.00
H2       0.08878    0.13434    0.74114   1.00
H2       0.14798    0.15640    0.86110   1.00
H2       0.10565    0.18407    0.86932   1.00
H2       0.10965    0.13665    0.88930   1.00
H2       0.10584    0.08162    0.79356   1.00
H2       0.14788    0.09745    0.81821   1.00
H2       0.10915    0.07665    0.84496   1.00
H2       -0.03656   0.12994    0.85311   1.00
H2       -0.02381   0.10737    0.89774   1.00
H2       -0.00834   0.15503    0.88784   1.00
H2       0.00956    0.05069    0.87099   1.00
H2       -0.00622   0.06487    0.82407   1.00
H2       0.04343    0.05382    0.83280   1.00
C4       0.52084    0.24960    0.75302   1.00
C4       0.47912    0.25019    0.75259   1.00
C3       0.54364    0.26411    0.78442   1.00
C3       0.45616    0.26850    0.78182   1.00
C3       0.54123    0.23425    0.72009   1.00
C3       0.45886    0.23143    0.72140   1.00
C2       0.60512    0.24913    0.75083   1.00
C2       0.39488    0.25087    0.74917   1.00
C3       0.58462    0.26410    0.78329   1.00
C3       0.41519    0.26853    0.78038   1.00
C3       0.58258    0.23383    0.71983   1.00
C3       0.41762    0.23324    0.71961   1.00
H1       0.53115    0.27499    0.80910   1.00
H1       0.46852    0.28257    0.80490   1.00
C5       0.52020    0.21926    0.68773   1.00
C5       0.47980    0.21128    0.69197   1.00
H1       0.59955    0.27524    0.80675   1.00
H1       0.40010    0.28194    0.80251   1.00
H1       0.59680    0.22174    0.69649   1.00
H1       0.40368    0.22184    0.69582   1.00
O3       0.53961    0.21058    0.65360   1.00
O3       0.46099    0.18665    0.66615   1.00
Si1      0.54247    0.24322    0.61900   1.00
Si1      0.45279    0.14159    0.67918   1.00
C6       0.57538    0.21759    0.58877   1.00
C6       0.49598    0.24669    0.59724   1.00
C6       0.56253    0.28796    0.63480   1.00
C6       0.46693    0.12691    0.72658   1.00
C6       0.40198    0.13717    0.67440   1.00
C6       0.47477    0.11132    0.64393   1.00
C6       0.61194    0.19972    0.60968   1.00
H2       0.55791    0.19259    0.57950   1.00
C6       0.59147    0.23631    0.55017   1.00
H2       0.48358    0.21807    0.60361   1.00
C6       0.46634    0.27706    0.61408   1.00
C6       0.49336    0.25137    0.55188   1.00
H2       0.58831    0.27842    0.65098   1.00
C6       0.57772    0.31665    0.60259   1.00
C6       0.53849    0.31476    0.66323   1.00
C6       0.51071    0.13192    0.73844   1.00
C6       0.44225    0.14033    0.76264   1.00
H2       0.46212    0.09544    0.72559   1.00
H2       0.39051    0.15506    0.69811   1.00
C6       0.38378    0.15450    0.63623   1.00
C6       0.38393    0.09559    0.67972   1.00
H2       0.45375    0.11081    0.61999   1.00
C6       0.51336    0.12668    0.62537   1.00
C6       0.48244    0.06761    0.65487   1.00
H2       0.60346    0.18067    0.63379   1.00
H2       0.63090    0.22256    0.62135   1.00
H2       0.62917    0.18190    0.58960   1.00
H2       0.59608    0.21368    0.52815   1.00
H2       0.57178    0.25783    0.53771   1.00
H2       0.61964    0.25058    0.55449   1.00
H2       0.43672    0.27071    0.60402   1.00
H2       0.46532    0.27643    0.64580   1.00
H2       0.47352    0.30663    0.60466   1.00
H2       0.50862    0.22780    0.53685   1.00
H2       0.46308    0.25016    0.54182   1.00
H2       0.50550    0.27930    0.54247   1.00
H2       0.55514    0.32258    0.58089   1.00
H2       0.58708    0.34461    0.61485   1.00
H2       0.60332    0.30504    0.58794   1.00
H2       0.51902    0.33447    0.64752   1.00
H2       0.52068    0.29862    0.68375   1.00
H2       0.55828    0.33291    0.68049   1.00
H2       0.51688    0.16144    0.74848   1.00
H2       0.51809    0.11220    0.76242   1.00
H2       0.53048    0.12523    0.71451   1.00
H2       0.45125    0.12457    0.78891   1.00
H2       0.44574    0.17127    0.76880   1.00
H2       0.41122    0.13434    0.75886   1.00
H2       0.35202    0.15640    0.63890   1.00
H2       0.39435    0.18407    0.63068   1.00
H2       0.39035    0.13665    0.61070   1.00
H2       0.39416    0.08162    0.70644   1.00
H2       0.35212    0.09745    0.68179   1.00
H2       0.39085    0.07665    0.65504   1.00
H2       0.53656    0.12994    0.64689   1.00
H2       0.52381    0.10737    0.60226   1.00
H2       0.50834    0.15503    0.61216   1.00
H2       0.49044    0.05069    0.62901   1.00
H2       0.50622    0.06487    0.67593   1.00
H2       0.45657    0.05382    0.66720   1.00
C4       0.24698    -0.02084   0.74960   1.00
C4       0.24741    0.02088    0.75019   1.00
C3       0.21558    -0.04364   0.76411   1.00
C3       0.21818    0.04384    0.76850   1.00
C3       0.27991    -0.04123   0.73425   1.00
C3       0.27860    0.04114    0.73143   1.00
C2       0.24917    -0.10512   0.74913   1.00
C2       0.25083    0.10512    0.75087   1.00
C3       0.21671    -0.08462   0.76410   1.00
C3       0.21962    0.08481    0.76853   1.00
C3       0.28017    -0.08258   0.73383   1.00
C3       0.28039    0.08238    0.73324   1.00
H1       0.19090    -0.03115   0.77499   1.00
H1       0.19510    0.03148    0.78257   1.00
C5       0.31227    -0.02020   0.71926   1.00
C5       0.30803    0.02020    0.71128   1.00
H1       0.19325    -0.09955   0.77524   1.00
H1       0.19749    0.09990    0.78194   1.00
H1       0.30351    -0.09680   0.72174   1.00
H1       0.30418    0.09632    0.72184   1.00
O3       0.34640    -0.03961   0.71058   1.00
O3       0.33385    0.03901    0.68665   1.00
Si1      0.38100    -0.04247   0.74322   1.00
Si1      0.32082    0.04721    0.64159   1.00
C6       0.41123    -0.07538   0.71759   1.00
C6       0.40276    0.00402    0.74669   1.00
C6       0.36520    -0.06253   0.78796   1.00
C6       0.27342    0.03307    0.62691   1.00
C6       0.32560    0.09802    0.63717   1.00
C6       0.35607    0.02523    0.61132   1.00
C6       0.39032    -0.11194   0.69972   1.00
H2       0.42050    -0.05791   0.69259   1.00
C6       0.44983    -0.09147   0.73631   1.00
H2       0.39639    0.01642    0.71807   1.00
C6       0.38592    0.03366    0.77706   1.00
C6       0.44812    0.00664    0.75137   1.00
H2       0.34902    -0.08831   0.77842   1.00
C6       0.39741    -0.07772   0.81665   1.00
C6       0.33677    -0.03849   0.81476   1.00
C6       0.26156    -0.01071   0.63192   1.00
C6       0.23736    0.05775    0.64033   1.00
H2       0.27441    0.03788    0.59544   1.00
H2       0.30189    0.10949    0.65506   1.00
C6       0.36377    0.11622    0.65450   1.00
C6       0.32028    0.11607    0.59559   1.00
H2       0.38001    0.04625    0.61081   1.00
C6       0.37463    -0.01336   0.62668   1.00
C6       0.34513    0.01756    0.56761   1.00
H2       0.36621    -0.10346   0.68067   1.00
H2       0.37865    -0.13090   0.72256   1.00
H2       0.41040    -0.12917   0.68190   1.00
H2       0.47185    -0.09608   0.71368   1.00
H2       0.46229    -0.07178   0.75783   1.00
H2       0.44551    -0.11964   0.75058   1.00
H2       0.39598    0.06328    0.77071   1.00
H2       0.35420    0.03468    0.77643   1.00
H2       0.39534    0.02648    0.80663   1.00
H2       0.46315    -0.00862   0.72780   1.00
H2       0.45818    0.03692    0.75016   1.00
H2       0.45753    -0.00550   0.77930   1.00
H2       0.41911    -0.05514   0.82258   1.00
H2       0.38515    -0.08708   0.84461   1.00
H2       0.41206    -0.10332   0.80504   1.00
H2       0.35248    -0.01902   0.83447   1.00
H2       0.31625    -0.02068   0.79862   1.00
H2       0.31951    -0.05828   0.83291   1.00
H2       0.25152    -0.01688   0.66144   1.00
H2       0.23758    -0.01809   0.61220   1.00
H2       0.28549    -0.03048   0.62523   1.00
H2       0.21109    0.04875    0.62457   1.00
H2       0.23120    0.05426    0.67127   1.00
H2       0.24114    0.08878    0.63434   1.00
H2       0.36110    0.14798    0.65640   1.00
H2       0.36932    0.10565    0.68407   1.00
H2       0.38930    0.10965    0.63665   1.00
H2       0.29356    0.10584    0.58162   1.00
H2       0.31821    0.14788    0.59745   1.00
H2       0.34496    0.10915    0.57665   1.00
H2       0.35311    -0.03656   0.62994   1.00
H2       0.39774    -0.02381   0.60737   1.00
H2       0.38784    -0.00834   0.65503   1.00
H2       0.37099    0.00956    0.55069   1.00
H2       0.32407    -0.00622   0.56487   1.00
H2       0.33280    0.04343    0.55382   1.00
C4       0.24960    0.24698    0.47916   1.00
C4       0.25019    0.24741    0.52088   1.00
C3       0.26411    0.21558    0.45636   1.00
C3       0.26850    0.21818    0.54384   1.00
C3       0.23425    0.27991    0.45877   1.00
C3       0.23143    0.27860    0.54114   1.00
C2       0.24913    0.24917    0.39488   1.00
C2       0.25087    0.25083    0.60512   1.00
C3       0.26410    0.21671    0.41538   1.00
C3       0.26853    0.21962    0.58481   1.00
C3       0.23383    0.28017    0.41742   1.00
C3       0.23324    0.28039    0.58238   1.00
H1       0.27499    0.19090    0.46885   1.00
H1       0.28257    0.19510    0.53148   1.00
C5       0.21926    0.31227    0.47980   1.00
C5       0.21128    0.30803    0.52020   1.00
H1       0.27524    0.19325    0.40045   1.00
H1       0.28194    0.19749    0.59990   1.00
H1       0.22174    0.30351    0.40320   1.00
H1       0.22184    0.30418    0.59632   1.00
O3       0.21058    0.34640    0.46039   1.00
O3       0.18665    0.33385    0.53901   1.00
Si1      0.24322    0.38100    0.45753   1.00
Si1      0.14159    0.32082    0.54721   1.00
C6       0.21759    0.41123    0.42462   1.00
C6       0.24669    0.40276    0.50402   1.00
C6       0.28796    0.36520    0.43747   1.00
C6       0.12691    0.27342    0.53307   1.00
C6       0.13717    0.32560    0.59802   1.00
C6       0.11132    0.35607    0.52523   1.00
C6       0.19972    0.39032    0.38806   1.00
H2       0.19259    0.42050    0.44209   1.00
C6       0.23631    0.44983    0.40853   1.00
H2       0.21807    0.39639    0.51642   1.00
C6       0.27706    0.38592    0.53366   1.00
C6       0.25137    0.44812    0.50664   1.00
H2       0.27842    0.34902    0.41169   1.00
C6       0.31665    0.39741    0.42228   1.00
C6       0.31476    0.33677    0.46151   1.00
C6       0.13192    0.26156    0.48929   1.00
C6       0.14033    0.23736    0.55775   1.00
H2       0.09544    0.27441    0.53788   1.00
H2       0.15506    0.30189    0.60949   1.00
C6       0.15450    0.36377    0.61622   1.00
C6       0.09559    0.32028    0.61607   1.00
H2       0.11081    0.38001    0.54625   1.00
C6       0.12668    0.37463    0.48664   1.00
C6       0.06761    0.34513    0.51756   1.00
H2       0.18067    0.36621    0.39654   1.00
H2       0.22256    0.37865    0.36910   1.00
H2       0.18190    0.41040    0.37083   1.00
H2       0.21368    0.47185    0.40392   1.00
H2       0.25783    0.46229    0.42822   1.00
H2       0.25058    0.44551    0.38036   1.00
H2       0.27071    0.39598    0.56328   1.00
H2       0.27643    0.35420    0.53468   1.00
H2       0.30663    0.39534    0.52648   1.00
H2       0.22780    0.46315    0.49138   1.00
H2       0.25016    0.45818    0.53692   1.00
H2       0.27930    0.45753    0.49450   1.00
H2       0.32258    0.41911    0.44486   1.00
H2       0.34461    0.38515    0.41292   1.00
H2       0.30504    0.41206    0.39668   1.00
H2       0.33447    0.35248    0.48098   1.00
H2       0.29862    0.31625    0.47932   1.00
H2       0.33291    0.31951    0.44172   1.00
H2       0.16144    0.25152    0.48312   1.00
H2       0.11220    0.23758    0.48191   1.00
H2       0.12523    0.28549    0.46952   1.00
H2       0.12457    0.21109    0.54875   1.00
H2       0.17127    0.23120    0.55426   1.00
H2       0.13434    0.24114    0.58878   1.00
H2       0.15640    0.36110    0.64798   1.00
H2       0.18407    0.36932    0.60565   1.00
H2       0.13665    0.38930    0.60965   1.00
H2       0.08162    0.29356    0.60584   1.00
H2       0.09745    0.31821    0.64788   1.00
H2       0.07665    0.34496    0.60915   1.00
H2       0.12994    0.35311    0.46344   1.00
H2       0.10737    0.39774    0.47619   1.00
H2       0.15503    0.38784    0.49166   1.00
H2       0.05069    0.37099    0.50956   1.00
H2       0.06487    0.32407    0.49378   1.00
H2       0.05382    0.33280    0.54343   1.00
C4       0.24960    0.75302    0.52084   1.00
C4       0.25019    0.75259    0.47912   1.00
C3       0.26411    0.78442    0.54364   1.00
C3       0.26850    0.78182    0.45616   1.00
C3       0.23425    0.72009    0.54123   1.00
C3       0.23143    0.72140    0.45886   1.00
C2       0.24913    0.75083    0.60512   1.00
C2       0.25087    0.74917    0.39488   1.00
C3       0.26410    0.78329    0.58462   1.00
C3       0.26853    0.78038    0.41519   1.00
C3       0.23383    0.71983    0.58258   1.00
C3       0.23324    0.71961    0.41762   1.00
H1       0.27499    0.80910    0.53115   1.00
H1       0.28257    0.80490    0.46852   1.00
C5       0.21926    0.68773    0.52020   1.00
C5       0.21128    0.69197    0.47980   1.00
H1       0.27524    0.80675    0.59955   1.00
H1       0.28194    0.80251    0.40010   1.00
H1       0.22174    0.69649    0.59680   1.00
H1       0.22184    0.69582    0.40368   1.00
O3       0.21058    0.65360    0.53961   1.00
O3       0.18665    0.66615    0.46099   1.00
Si1      0.24322    0.61900    0.54247   1.00
Si1      0.14159    0.67918    0.45279   1.00
C6       0.21759    0.58877    0.57538   1.00
C6       0.24669    0.59724    0.49598   1.00
C6       0.28796    0.63480    0.56253   1.00
C6       0.12691    0.72658    0.46693   1.00
C6       0.13717    0.67440    0.40198   1.00
C6       0.11132    0.64393    0.47477   1.00
C6       0.19972    0.60968    0.61194   1.00
H2       0.19259    0.57950    0.55791   1.00
C6       0.23631    0.55017    0.59147   1.00
H2       0.21807    0.60361    0.48358   1.00
C6       0.27706    0.61408    0.46634   1.00
C6       0.25137    0.55188    0.49336   1.00
H2       0.27842    0.65098    0.58831   1.00
C6       0.31665    0.60259    0.57772   1.00
C6       0.31476    0.66323    0.53849   1.00
C6       0.13192    0.73844    0.51071   1.00
C6       0.14033    0.76264    0.44225   1.00
H2       0.09544    0.72559    0.46212   1.00
H2       0.15506    0.69811    0.39051   1.00
C6       0.15450    0.63623    0.38378   1.00
C6       0.09559    0.67972    0.38393   1.00
H2       0.11081    0.61999    0.45375   1.00
C6       0.12668    0.62537    0.51336   1.00
C6       0.06761    0.65487    0.48244   1.00
H2       0.18067    0.63379    0.60346   1.00
H2       0.22256    0.62135    0.63090   1.00
H2       0.18190    0.58960    0.62917   1.00
H2       0.21368    0.52815    0.59608   1.00
H2       0.25783    0.53771    0.57178   1.00
H2       0.25058    0.55449    0.61964   1.00
H2       0.27071    0.60402    0.43672   1.00
H2       0.27643    0.64580    0.46532   1.00
H2       0.30663    0.60466    0.47352   1.00
H2       0.22780    0.53685    0.50862   1.00
H2       0.25016    0.54182    0.46308   1.00
H2       0.27930    0.54247    0.50550   1.00
H2       0.32258    0.58089    0.55514   1.00
H2       0.34461    0.61485    0.58708   1.00
H2       0.30504    0.58794    0.60332   1.00
H2       0.33447    0.64752    0.51902   1.00
H2       0.29862    0.68375    0.52068   1.00
H2       0.33291    0.68049    0.55828   1.00
H2       0.16144    0.74848    0.51688   1.00
H2       0.11220    0.76242    0.51809   1.00
H2       0.12523    0.71451    0.53048   1.00
H2       0.12457    0.78891    0.45125   1.00
H2       0.17127    0.76880    0.44574   1.00
H2       0.13434    0.75886    0.41122   1.00
H2       0.15640    0.63890    0.35202   1.00
H2       0.18407    0.63068    0.39435   1.00
H2       0.13665    0.61070    0.39035   1.00
H2       0.08162    0.70644    0.39416   1.00
H2       0.09745    0.68179    0.35212   1.00
H2       0.07665    0.65504    0.39085   1.00
H2       0.12994    0.64689    0.53656   1.00
H2       0.10737    0.60226    0.52381   1.00
H2       0.15503    0.61216    0.50834   1.00
H2       0.05069    0.62901    0.49044   1.00
H2       0.06487    0.67593    0.50622   1.00
H2       0.05382    0.66720    0.45657   1.00
C4       0.25302    1.02084    0.24960   1.00
C4       0.25259    0.97912    0.25019   1.00
C3       0.28442    1.04364    0.26411   1.00
C3       0.28182    0.95616    0.26850   1.00
C3       0.22009    1.04123    0.23425   1.00
C3       0.22140    0.95886    0.23143   1.00
C2       0.25083    1.10512    0.24913   1.00
C2       0.24917    0.89488    0.25087   1.00
C3       0.28329    1.08462    0.26410   1.00
C3       0.28038    0.91519    0.26853   1.00
C3       0.21983    1.08258    0.23383   1.00
C3       0.21961    0.91762    0.23324   1.00
H1       0.30910    1.03115    0.27499   1.00
H1       0.30490    0.96852    0.28257   1.00
C5       0.18773    1.02020    0.21926   1.00
C5       0.19197    0.97980    0.21128   1.00
H1       0.30675    1.09955    0.27524   1.00
H1       0.30251    0.90010    0.28194   1.00
H1       0.19649    1.09680    0.22174   1.00
H1       0.19582    0.90368    0.22184   1.00
O3       0.15360    1.03961    0.21058   1.00
O3       0.16615    0.96099    0.18665   1.00
Si1      0.11900    1.04247    0.24322   1.00
Si1      0.17918    0.95279    0.14159   1.00
C6       0.08877    1.07538    0.21759   1.00
C6       0.09724    0.99598    0.24669   1.00
C6       0.13480    1.06253    0.28796   1.00
C6       0.22658    0.96693    0.12691   1.00
C6       0.17440    0.90198    0.13717   1.00
C6       0.14393    0.97477    0.11132   1.00
C6       0.10968    1.11194    0.19972   1.00
H2       0.07950    1.05791    0.19259   1.00
C6       0.05017    1.09147    0.23631   1.00
H2       0.10361    0.98358    0.21807   1.00
C6       0.11408    0.96634    0.27706   1.00
C6       0.05188    0.99336    0.25137   1.00
H2       0.15098    1.08831    0.27842   1.00
C6       0.10259    1.07772    0.31665   1.00
C6       0.16323    1.03849    0.31476   1.00
C6       0.23844    1.01071    0.13192   1.00
C6       0.26264    0.94225    0.14033   1.00
H2       0.22559    0.96212    0.09544   1.00
H2       0.19811    0.89051    0.15506   1.00
C6       0.13623    0.88378    0.15450   1.00
C6       0.17972    0.88393    0.09559   1.00
H2       0.11999    0.95375    0.11081   1.00
C6       0.12537    1.01336    0.12668   1.00
C6       0.15487    0.98244    0.06761   1.00
H2       0.13379    1.10346    0.18067   1.00
H2       0.12135    1.13090    0.22256   1.00
H2       0.08960    1.12917    0.18190   1.00
H2       0.02815    1.09608    0.21368   1.00
H2       0.03771    1.07178    0.25783   1.00
H2       0.05449    1.11964    0.25058   1.00
H2       0.10402    0.93672    0.27071   1.00
H2       0.14580    0.96532    0.27643   1.00
H2       0.10466    0.97352    0.30663   1.00
H2       0.03685    1.00862    0.22780   1.00
H2       0.04182    0.96308    0.25016   1.00
H2       0.04247    1.00550    0.27930   1.00
H2       0.08089    1.05514    0.32258   1.00
H2       0.11485    1.08708    0.34461   1.00
H2       0.08794    1.10332    0.30504   1.00
H2       0.14752    1.01902    0.33447   1.00
H2       0.18375    1.02068    0.29862   1.00
H2       0.18049    1.05828    0.33291   1.00
H2       0.24848    1.01688    0.16144   1.00
H2       0.26242    1.01809    0.11220   1.00
H2       0.21451    1.03048    0.12523   1.00
H2       0.28891    0.95125    0.12457   1.00
H2       0.26880    0.94574    0.17127   1.00
H2       0.25886    0.91122    0.13434   1.00
H2       0.13890    0.85202    0.15640   1.00
H2       0.13068    0.89435    0.18407   1.00
H2       0.11070    0.89035    0.13665   1.00
H2       0.20644    0.89416    0.08162   1.00
H2       0.18179    0.85212    0.09745   1.00
H2       0.15504    0.89085    0.07665   1.00
H2       0.14689    1.03656    0.12994   1.00
H2       0.10226    1.02381    0.10737   1.00
H2       0.11216    1.00834    0.15503   1.00
H2       0.12901    0.99044    0.05069   1.00
H2       0.17593    1.00622    0.06487   1.00
H2       0.16720    0.95657    0.05382   1.00
C4       -0.02084   0.74960    0.24698   1.00
C4       0.02088    0.75019    0.24741   1.00
C3       -0.04364   0.76411    0.21558   1.00
C3       0.04384    0.76850    0.21818   1.00
C3       -0.04123   0.73425    0.27991   1.00
C3       0.04114    0.73143    0.27860   1.00
C2       -0.10512   0.74913    0.24917   1.00
C2       0.10512    0.75087    0.25083   1.00
C3       -0.08462   0.76410    0.21671   1.00
C3       0.08481    0.76853    0.21962   1.00
C3       -0.08258   0.73383    0.28017   1.00
C3       0.08238    0.73324    0.28039   1.00
H1       -0.03115   0.77499    0.19090   1.00
H1       0.03148    0.78257    0.19510   1.00
C5       -0.02020   0.71926    0.31227   1.00
C5       0.02020    0.71128    0.30803   1.00
H1       -0.09955   0.77524    0.19325   1.00
H1       0.09990    0.78194    0.19749   1.00
H1       -0.09680   0.72174    0.30351   1.00
H1       0.09632    0.72184    0.30418   1.00
O3       -0.03961   0.71058    0.34640   1.00
O3       0.03901    0.68665    0.33385   1.00
Si1      -0.04247   0.74322    0.38100   1.00
Si1      0.04721    0.64159    0.32082   1.00
C6       -0.07538   0.71759    0.41123   1.00
C6       0.00402    0.74669    0.40276   1.00
C6       -0.06253   0.78796    0.36520   1.00
C6       0.03307    0.62691    0.27342   1.00
C6       0.09802    0.63717    0.32560   1.00
C6       0.02523    0.61132    0.35607   1.00
C6       -0.11194   0.69972    0.39032   1.00
H2       -0.05791   0.69259    0.42050   1.00
C6       -0.09147   0.73631    0.44983   1.00
H2       0.01642    0.71807    0.39639   1.00
C6       0.03366    0.77706    0.38592   1.00
C6       0.00664    0.75137    0.44812   1.00
H2       -0.08831   0.77842    0.34902   1.00
C6       -0.07772   0.81665    0.39741   1.00
C6       -0.03849   0.81476    0.33677   1.00
C6       -0.01071   0.63192    0.26156   1.00
C6       0.05775    0.64033    0.23736   1.00
H2       0.03788    0.59544    0.27441   1.00
H2       0.10949    0.65506    0.30189   1.00
C6       0.11622    0.65450    0.36377   1.00
C6       0.11607    0.59559    0.32028   1.00
H2       0.04625    0.61081    0.38001   1.00
C6       -0.01336   0.62668    0.37463   1.00
C6       0.01756    0.56761    0.34513   1.00
H2       -0.10346   0.68067    0.36621   1.00
H2       -0.13090   0.72256    0.37865   1.00
H2       -0.12917   0.68190    0.41040   1.00
H2       -0.09608   0.71368    0.47185   1.00
H2       -0.07178   0.75783    0.46229   1.00
H2       -0.11964   0.75058    0.44551   1.00
H2       0.06328    0.77071    0.39598   1.00
H2       0.03468    0.77643    0.35420   1.00
H2       0.02648    0.80663    0.39534   1.00
H2       -0.00862   0.72780    0.46315   1.00
H2       0.03692    0.75016    0.45818   1.00
H2       -0.00550   0.77930    0.45753   1.00
H2       -0.05514   0.82258    0.41911   1.00
H2       -0.08708   0.84461    0.38515   1.00
H2       -0.10332   0.80504    0.41206   1.00
H2       -0.01902   0.83447    0.35248   1.00
H2       -0.02068   0.79862    0.31625   1.00
H2       -0.05828   0.83291    0.31951   1.00
H2       -0.01688   0.66144    0.25152   1.00
H2       -0.01809   0.61220    0.23758   1.00
H2       -0.03048   0.62523    0.28549   1.00
H2       0.04875    0.62457    0.21109   1.00
H2       0.05426    0.67127    0.23120   1.00
H2       0.08878    0.63434    0.24114   1.00
H2       0.14798    0.65640    0.36110   1.00
H2       0.10565    0.68407    0.36932   1.00
H2       0.10965    0.63665    0.38930   1.00
H2       0.10584    0.58162    0.29356   1.00
H2       0.14788    0.59745    0.31821   1.00
H2       0.10915    0.57665    0.34496   1.00
H2       -0.03656   0.62994    0.35311   1.00
H2       -0.02381   0.60737    0.39774   1.00
H2       -0.00834   0.65503    0.38784   1.00
H2       0.00956    0.55069    0.37099   1.00
H2       -0.00622   0.56487    0.32407   1.00
H2       0.04343    0.55382    0.33280   1.00
C4       0.52084    0.74960    0.25302   1.00
C4       0.47912    0.75019    0.25259   1.00
C3       0.54364    0.76411    0.28442   1.00
C3       0.45616    0.76850    0.28182   1.00
C3       0.54123    0.73425    0.22009   1.00
C3       0.45886    0.73143    0.22140   1.00
C2       0.60512    0.74913    0.25083   1.00
C2       0.39488    0.75087    0.24917   1.00
C3       0.58462    0.76410    0.28329   1.00
C3       0.41519    0.76853    0.28038   1.00
C3       0.58258    0.73383    0.21983   1.00
C3       0.41762    0.73324    0.21961   1.00
H1       0.53115    0.77499    0.30910   1.00
H1       0.46852    0.78257    0.30490   1.00
C5       0.52020    0.71926    0.18773   1.00
C5       0.47980    0.71128    0.19197   1.00
H1       0.59955    0.77524    0.30675   1.00
H1       0.40010    0.78194    0.30251   1.00
H1       0.59680    0.72174    0.19649   1.00
H1       0.40368    0.72184    0.19582   1.00
O3       0.53961    0.71058    0.15360   1.00
O3       0.46099    0.68665    0.16615   1.00
Si1      0.54247    0.74322    0.11900   1.00
Si1      0.45279    0.64159    0.17918   1.00
C6       0.57538    0.71759    0.08877   1.00
C6       0.49598    0.74669    0.09724   1.00
C6       0.56253    0.78796    0.13480   1.00
C6       0.46693    0.62691    0.22658   1.00
C6       0.40198    0.63717    0.17440   1.00
C6       0.47477    0.61132    0.14393   1.00
C6       0.61194    0.69972    0.10968   1.00
H2       0.55791    0.69259    0.07950   1.00
C6       0.59147    0.73631    0.05017   1.00
H2       0.48358    0.71807    0.10361   1.00
C6       0.46634    0.77706    0.11408   1.00
C6       0.49336    0.75137    0.05188   1.00
H2       0.58831    0.77842    0.15098   1.00
C6       0.57772    0.81665    0.10259   1.00
C6       0.53849    0.81476    0.16323   1.00
C6       0.51071    0.63192    0.23844   1.00
C6       0.44225    0.64033    0.26264   1.00
H2       0.46212    0.59544    0.22559   1.00
H2       0.39051    0.65506    0.19811   1.00
C6       0.38378    0.65450    0.13623   1.00
C6       0.38393    0.59559    0.17972   1.00
H2       0.45375    0.61081    0.11999   1.00
C6       0.51336    0.62668    0.12537   1.00
C6       0.48244    0.56761    0.15487   1.00
H2       0.60346    0.68067    0.13379   1.00
H2       0.63090    0.72256    0.12135   1.00
H2       0.62917    0.68190    0.08960   1.00
H2       0.59608    0.71368    0.02815   1.00
H2       0.57178    0.75783    0.03771   1.00
H2       0.61964    0.75058    0.05449   1.00
H2       0.43672    0.77071    0.10402   1.00
H2       0.46532    0.77643    0.14580   1.00
H2       0.47352    0.80663    0.10466   1.00
H2       0.50862    0.72780    0.03685   1.00
H2       0.46308    0.75016    0.04182   1.00
H2       0.50550    0.77930    0.04247   1.00
H2       0.55514    0.82258    0.08089   1.00
H2       0.58708    0.84461    0.11485   1.00
H2       0.60332    0.80504    0.08794   1.00
H2       0.51902    0.83447    0.14752   1.00
H2       0.52068    0.79862    0.18375   1.00
H2       0.55828    0.83291    0.18049   1.00
H2       0.51688    0.66144    0.24848   1.00
H2       0.51809    0.61220    0.26242   1.00
H2       0.53048    0.62523    0.21451   1.00
H2       0.45125    0.62457    0.28891   1.00
H2       0.44574    0.67127    0.26880   1.00
H2       0.41122    0.63434    0.25886   1.00
H2       0.35202    0.65640    0.13890   1.00
H2       0.39435    0.68407    0.13068   1.00
H2       0.39035    0.63665    0.11070   1.00
H2       0.39416    0.58162    0.20644   1.00
H2       0.35212    0.59745    0.18179   1.00
H2       0.39085    0.57665    0.15504   1.00
H2       0.53656    0.62994    0.14689   1.00
H2       0.52381    0.60737    0.10226   1.00
H2       0.50834    0.65503    0.11216   1.00
H2       0.49044    0.55069    0.12901   1.00
H2       0.50622    0.56487    0.17593   1.00
H2       0.45657    0.55382    0.16720   1.00
C4       0.24698    0.47916    0.24960   1.00
C4       0.24741    0.52088    0.25019   1.00
C3       0.21558    0.45636    0.26411   1.00
C3       0.21818    0.54384    0.26850   1.00
C3       0.27991    0.45877    0.23425   1.00
C3       0.27860    0.54114    0.23143   1.00
C2       0.24917    0.39488    0.24913   1.00
C2       0.25083    0.60512    0.25087   1.00
C3       0.21671    0.41538    0.26410   1.00
C3       0.21962    0.58481    0.26853   1.00
C3       0.28017    0.41742    0.23383   1.00
C3       0.28039    0.58238    0.23324   1.00
H1       0.19090    0.46885    0.27499   1.00
H1       0.19510    0.53148    0.28257   1.00
C5       0.31227    0.47980    0.21926   1.00
C5       0.30803    0.52020    0.21128   1.00
H1       0.19325    0.40045    0.27524   1.00
H1       0.19749    0.59990    0.28194   1.00
H1       0.30351    0.40320    0.22174   1.00
H1       0.30418    0.59632    0.22184   1.00
O3       0.34640    0.46039    0.21058   1.00
O3       0.33385    0.53901    0.18665   1.00
Si1      0.38100    0.45753    0.24322   1.00
Si1      0.32082    0.54721    0.14159   1.00
C6       0.41123    0.42462    0.21759   1.00
C6       0.40276    0.50402    0.24669   1.00
C6       0.36520    0.43747    0.28796   1.00
C6       0.27342    0.53307    0.12691   1.00
C6       0.32560    0.59802    0.13717   1.00
C6       0.35607    0.52523    0.11132   1.00
C6       0.39032    0.38806    0.19972   1.00
H2       0.42050    0.44209    0.19259   1.00
C6       0.44983    0.40853    0.23631   1.00
H2       0.39639    0.51642    0.21807   1.00
C6       0.38592    0.53366    0.27706   1.00
C6       0.44812    0.50664    0.25137   1.00
H2       0.34902    0.41169    0.27842   1.00
C6       0.39741    0.42228    0.31665   1.00
C6       0.33677    0.46151    0.31476   1.00
C6       0.26156    0.48929    0.13192   1.00
C6       0.23736    0.55775    0.14033   1.00
H2       0.27441    0.53788    0.09544   1.00
H2       0.30189    0.60949    0.15506   1.00
C6       0.36377    0.61622    0.15450   1.00
C6       0.32028    0.61607    0.09559   1.00
H2       0.38001    0.54625    0.11081   1.00
C6       0.37463    0.48664    0.12668   1.00
C6       0.34513    0.51756    0.06761   1.00
H2       0.36621    0.39654    0.18067   1.00
H2       0.37865    0.36910    0.22256   1.00
H2       0.41040    0.37083    0.18190   1.00
H2       0.47185    0.40392    0.21368   1.00
H2       0.46229    0.42822    0.25783   1.00
H2       0.44551    0.38036    0.25058   1.00
H2       0.39598    0.56328    0.27071   1.00
H2       0.35420    0.53468    0.27643   1.00
H2       0.39534    0.52648    0.30663   1.00
H2       0.46315    0.49138    0.22780   1.00
H2       0.45818    0.53692    0.25016   1.00
H2       0.45753    0.49450    0.27930   1.00
H2       0.41911    0.44486    0.32258   1.00
H2       0.38515    0.41292    0.34461   1.00
H2       0.41206    0.39668    0.30504   1.00
H2       0.35248    0.48098    0.33447   1.00
H2       0.31625    0.47932    0.29862   1.00
H2       0.31951    0.44172    0.33291   1.00
H2       0.25152    0.48312    0.16144   1.00
H2       0.23758    0.48191    0.11220   1.00
H2       0.28549    0.46952    0.12523   1.00
H2       0.21109    0.54875    0.12457   1.00
H2       0.23120    0.55426    0.17127   1.00
H2       0.24114    0.58878    0.13434   1.00
H2       0.36110    0.64798    0.15640   1.00
H2       0.36932    0.60565    0.18407   1.00
H2       0.38930    0.60965    0.13665   1.00
H2       0.29356    0.60584    0.08162   1.00
H2       0.31821    0.64788    0.09745   1.00
H2       0.34496    0.60915    0.07665   1.00
H2       0.35311    0.46344    0.12994   1.00
H2       0.39774    0.47619    0.10737   1.00
H2       0.38784    0.49166    0.15503   1.00
H2       0.37099    0.50956    0.05069   1.00
H2       0.32407    0.49378    0.06487   1.00
H2       0.33280    0.54343    0.05382   1.00
C4       0.24960    0.74698    -0.02084   1.00
C4       0.25019    0.74741    0.02088   1.00
C3       0.26411    0.71558    -0.04364   1.00
C3       0.26850    0.71818    0.04384   1.00
C3       0.23425    0.77991    -0.04123   1.00
C3       0.23143    0.77860    0.04114   1.00
C2       0.24913    0.74917    -0.10512   1.00
C2       0.25087    0.75083    0.10512   1.00
C3       0.26410    0.71671    -0.08462   1.00
C3       0.26853    0.71962    0.08481   1.00
C3       0.23383    0.78017    -0.08258   1.00
C3       0.23324    0.78039    0.08238   1.00
H1       0.27499    0.69090    -0.03115   1.00
H1       0.28257    0.69510    0.03148   1.00
C5       0.21926    0.81227    -0.02020   1.00
C5       0.21128    0.80803    0.02020   1.00
H1       0.27524    0.69325    -0.09955   1.00
H1       0.28194    0.69749    0.09990   1.00
H1       0.22174    0.80351    -0.09680   1.00
H1       0.22184    0.80418    0.09632   1.00
O3       0.21058    0.84640    -0.03961   1.00
O3       0.18665    0.83385    0.03901   1.00
Si1      0.24322    0.88100    -0.04247   1.00
Si1      0.14159    0.82082    0.04721   1.00
C6       0.21759    0.91123    -0.07538   1.00
C6       0.24669    0.90276    0.00402   1.00
C6       0.28796    0.86520    -0.06253   1.00
C6       0.12691    0.77342    0.03307   1.00
C6       0.13717    0.82560    0.09802   1.00
C6       0.11132    0.85607    0.02523   1.00
C6       0.19972    0.89032    -0.11194   1.00
H2       0.19259    0.92050    -0.05791   1.00
C6       0.23631    0.94983    -0.09147   1.00
H2       0.21807    0.89639    0.01642   1.00
C6       0.27706    0.88592    0.03366   1.00
C6       0.25137    0.94812    0.00664   1.00
H2       0.27842    0.84902    -0.08831   1.00
C6       0.31665    0.89741    -0.07772   1.00
C6       0.31476    0.83677    -0.03849   1.00
C6       0.13192    0.76156    -0.01071   1.00
C6       0.14033    0.73736    0.05775   1.00
H2       0.09544    0.77441    0.03788   1.00
H2       0.15506    0.80189    0.10949   1.00
C6       0.15450    0.86377    0.11622   1.00
C6       0.09559    0.82028    0.11607   1.00
H2       0.11081    0.88001    0.04625   1.00
C6       0.12668    0.87463    -0.01336   1.00
C6       0.06761    0.84513    0.01756   1.00
H2       0.18067    0.86621    -0.10346   1.00
H2       0.22256    0.87865    -0.13090   1.00
H2       0.18190    0.91040    -0.12917   1.00
H2       0.21368    0.97185    -0.09608   1.00
H2       0.25783    0.96229    -0.07178   1.00
H2       0.25058    0.94551    -0.11964   1.00
H2       0.27071    0.89598    0.06328   1.00
H2       0.27643    0.85420    0.03468   1.00
H2       0.30663    0.89534    0.02648   1.00
H2       0.22780    0.96315    -0.00862   1.00
H2       0.25016    0.95818    0.03692   1.00
H2       0.27930    0.95753    -0.00550   1.00
H2       0.32258    0.91911    -0.05514   1.00
H2       0.34461    0.88515    -0.08708   1.00
H2       0.30504    0.91206    -0.10332   1.00
H2       0.33447    0.85248    -0.01902   1.00
H2       0.29862    0.81625    -0.02068   1.00
H2       0.33291    0.81951    -0.05828   1.00
H2       0.16144    0.75152    -0.01688   1.00
H2       0.11220    0.73758    -0.01809   1.00
H2       0.12523    0.78549    -0.03048   1.00
H2       0.12457    0.71109    0.04875   1.00
H2       0.17127    0.73120    0.05426   1.00
H2       0.13434    0.74114    0.08878   1.00
H2       0.15640    0.86110    0.14798   1.00
H2       0.18407    0.86932    0.10565   1.00
H2       0.13665    0.88930    0.10965   1.00
H2       0.08162    0.79356    0.10584   1.00
H2       0.09745    0.81821    0.14788   1.00
H2       0.07665    0.84496    0.10915   1.00
H2       0.12994    0.85311    -0.03656   1.00
H2       0.10737    0.89774    -0.02381   1.00
H2       0.15503    0.88784    -0.00834   1.00
H2       0.05069    0.87099    0.00956   1.00
H2       0.06487    0.82407    -0.00622   1.00
H2       0.05382    0.83280    0.04343   1.00
C4       0.74960    0.25302    0.52084   1.00
C4       0.75019    0.25259    0.47912   1.00
C3       0.76411    0.28442    0.54364   1.00
C3       0.76850    0.28182    0.45616   1.00
C3       0.73425    0.22009    0.54123   1.00
C3       0.73143    0.22140    0.45886   1.00
C2       0.74913    0.25083    0.60512   1.00
C2       0.75087    0.24917    0.39488   1.00
C3       0.76410    0.28329    0.58462   1.00
C3       0.76853    0.28038    0.41519   1.00
C3       0.73383    0.21983    0.58258   1.00
C3       0.73324    0.21961    0.41762   1.00
H1       0.77499    0.30910    0.53115   1.00
H1       0.78257    0.30490    0.46852   1.00
C5       0.71926    0.18773    0.52020   1.00
C5       0.71128    0.19197    0.47980   1.00
H1       0.77524    0.30675    0.59955   1.00
H1       0.78194    0.30251    0.40010   1.00
H1       0.72174    0.19649    0.59680   1.00
H1       0.72184    0.19582    0.40368   1.00
O3       0.71058    0.15360    0.53961   1.00
O3       0.68665    0.16615    0.46099   1.00
Si1      0.74322    0.11900    0.54247   1.00
Si1      0.64159    0.17918    0.45279   1.00
C6       0.71759    0.08877    0.57538   1.00
C6       0.74669    0.09724    0.49598   1.00
C6       0.78796    0.13480    0.56253   1.00
C6       0.62691    0.22658    0.46693   1.00
C6       0.63717    0.17440    0.40198   1.00
C6       0.61132    0.14393    0.47477   1.00
C6       0.69972    0.10968    0.61194   1.00
H2       0.69259    0.07950    0.55791   1.00
C6       0.73631    0.05017    0.59147   1.00
H2       0.71807    0.10361    0.48358   1.00
C6       0.77706    0.11408    0.46634   1.00
C6       0.75137    0.05188    0.49336   1.00
H2       0.77842    0.15098    0.58831   1.00
C6       0.81665    0.10259    0.57772   1.00
C6       0.81476    0.16323    0.53849   1.00
C6       0.63192    0.23844    0.51071   1.00
C6       0.64033    0.26264    0.44225   1.00
H2       0.59544    0.22559    0.46212   1.00
H2       0.65506    0.19811    0.39051   1.00
C6       0.65450    0.13623    0.38378   1.00
C6       0.59559    0.17972    0.38393   1.00
H2       0.61081    0.11999    0.45375   1.00
C6       0.62668    0.12537    0.51336   1.00
C6       0.56761    0.15487    0.48244   1.00
H2       0.68067    0.13379    0.60346   1.00
H2       0.72256    0.12135    0.63090   1.00
H2       0.68190    0.08960    0.62917   1.00
H2       0.71368    0.02815    0.59608   1.00
H2       0.75783    0.03771    0.57178   1.00
H2       0.75058    0.05449    0.61964   1.00
H2       0.77071    0.10402    0.43672   1.00
H2       0.77643    0.14580    0.46532   1.00
H2       0.80663    0.10466    0.47352   1.00
H2       0.72780    0.03685    0.50862   1.00
H2       0.75016    0.04182    0.46308   1.00
H2       0.77930    0.04247    0.50550   1.00
H2       0.82258    0.08089    0.55514   1.00
H2       0.84461    0.11485    0.58708   1.00
H2       0.80504    0.08794    0.60332   1.00
H2       0.83447    0.14752    0.51902   1.00
H2       0.79862    0.18375    0.52068   1.00
H2       0.83291    0.18049    0.55828   1.00
H2       0.66144    0.24848    0.51688   1.00
H2       0.61220    0.26242    0.51809   1.00
H2       0.62523    0.21451    0.53048   1.00
H2       0.62457    0.28891    0.45125   1.00
H2       0.67127    0.26880    0.44574   1.00
H2       0.63434    0.25886    0.41122   1.00
H2       0.65640    0.13890    0.35202   1.00
H2       0.68407    0.13068    0.39435   1.00
H2       0.63665    0.11070    0.39035   1.00
H2       0.58162    0.20644    0.39416   1.00
H2       0.59745    0.18179    0.35212   1.00
H2       0.57665    0.15504    0.39085   1.00
H2       0.62994    0.14689    0.53656   1.00
H2       0.60737    0.10226    0.52381   1.00
H2       0.65503    0.11216    0.50834   1.00
H2       0.55069    0.12901    0.49044   1.00
H2       0.56487    0.17593    0.50622   1.00
H2       0.55382    0.16720    0.45657   1.00
C4       0.75302    0.52084    0.24960   1.00
C4       0.75259    0.47912    0.25019   1.00
C3       0.78442    0.54364    0.26411   1.00
C3       0.78182    0.45616    0.26850   1.00
C3       0.72009    0.54123    0.23425   1.00
C3       0.72140    0.45886    0.23143   1.00
C2       0.75083    0.60512    0.24913   1.00
C2       0.74917    0.39488    0.25087   1.00
C3       0.78329    0.58462    0.26410   1.00
C3       0.78038    0.41519    0.26853   1.00
C3       0.71983    0.58258    0.23383   1.00
C3       0.71961    0.41762    0.23324   1.00
H1       0.80910    0.53115    0.27499   1.00
H1       0.80490    0.46852    0.28257   1.00
C5       0.68773    0.52020    0.21926   1.00
C5       0.69197    0.47980    0.21128   1.00
H1       0.80675    0.59955    0.27524   1.00
H1       0.80251    0.40010    0.28194   1.00
H1       0.69649    0.59680    0.22174   1.00
H1       0.69582    0.40368    0.22184   1.00
O3       0.65360    0.53961    0.21058   1.00
O3       0.66615    0.46099    0.18665   1.00
Si1      0.61900    0.54247    0.24322   1.00
Si1      0.67918    0.45279    0.14159   1.00
C6       0.58877    0.57538    0.21759   1.00
C6       0.59724    0.49598    0.24669   1.00
C6       0.63480    0.56253    0.28796   1.00
C6       0.72658    0.46693    0.12691   1.00
C6       0.67440    0.40198    0.13717   1.00
C6       0.64393    0.47477    0.11132   1.00
C6       0.60968    0.61194    0.19972   1.00
H2       0.57950    0.55791    0.19259   1.00
C6       0.55017    0.59147    0.23631   1.00
H2       0.60361    0.48358    0.21807   1.00
C6       0.61408    0.46634    0.27706   1.00
C6       0.55188    0.49336    0.25137   1.00
H2       0.65098    0.58831    0.27842   1.00
C6       0.60259    0.57772    0.31665   1.00
C6       0.66323    0.53849    0.31476   1.00
C6       0.73844    0.51071    0.13192   1.00
C6       0.76264    0.44225    0.14033   1.00
H2       0.72559    0.46212    0.09544   1.00
H2       0.69811    0.39051    0.15506   1.00
C6       0.63623    0.38378    0.15450   1.00
C6       0.67972    0.38393    0.09559   1.00
H2       0.61999    0.45375    0.11081   1.00
C6       0.62537    0.51336    0.12668   1.00
C6       0.65487    0.48244    0.06761   1.00
H2       0.63379    0.60346    0.18067   1.00
H2       0.62135    0.63090    0.22256   1.00
H2       0.58960    0.62917    0.18190   1.00
H2       0.52815    0.59608    0.21368   1.00
H2       0.53771    0.57178    0.25783   1.00
H2       0.55449    0.61964    0.25058   1.00
H2       0.60402    0.43672    0.27071   1.00
H2       0.64580    0.46532    0.27643   1.00
H2       0.60466    0.47352    0.30663   1.00
H2       0.53685    0.50862    0.22780   1.00
H2       0.54182    0.46308    0.25016   1.00
H2       0.54247    0.50550    0.27930   1.00
H2       0.58089    0.55514    0.32258   1.00
H2       0.61485    0.58708    0.34461   1.00
H2       0.58794    0.60332    0.30504   1.00
H2       0.64752    0.51902    0.33447   1.00
H2       0.68375    0.52068    0.29862   1.00
H2       0.68049    0.55828    0.33291   1.00
H2       0.74848    0.51688    0.16144   1.00
H2       0.76242    0.51809    0.11220   1.00
H2       0.71451    0.53048    0.12523   1.00
H2       0.78891    0.45125    0.12457   1.00
H2       0.76880    0.44574    0.17127   1.00
H2       0.75886    0.41122    0.13434   1.00
H2       0.63890    0.35202    0.15640   1.00
H2       0.63068    0.39435    0.18407   1.00
H2       0.61070    0.39035    0.13665   1.00
H2       0.70644    0.39416    0.08162   1.00
H2       0.68179    0.35212    0.09745   1.00
H2       0.65504    0.39085    0.07665   1.00
H2       0.64689    0.53656    0.12994   1.00
H2       0.60226    0.52381    0.10737   1.00
H2       0.61216    0.50834    0.15503   1.00
H2       0.62901    0.49044    0.05069   1.00
H2       0.67593    0.50622    0.06487   1.00
H2       0.66720    0.45657    0.05382   1.00
C4       0.47916    0.24960    0.24698   1.00
C4       0.52088    0.25019    0.24741   1.00
C3       0.45636    0.26411    0.21558   1.00
C3       0.54384    0.26850    0.21818   1.00
C3       0.45877    0.23425    0.27991   1.00
C3       0.54114    0.23143    0.27860   1.00
C2       0.39488    0.24913    0.24917   1.00
C2       0.60512    0.25087    0.25083   1.00
C3       0.41538    0.26410    0.21671   1.00
C3       0.58481    0.26853    0.21962   1.00
C3       0.41742    0.23383    0.28017   1.00
C3       0.58238    0.23324    0.28039   1.00
H1       0.46885    0.27499    0.19090   1.00
H1       0.53148    0.28257    0.19510   1.00
C5       0.47980    0.21926    0.31227   1.00
C5       0.52020    0.21128    0.30803   1.00
H1       0.40045    0.27524    0.19325   1.00
H1       0.59990    0.28194    0.19749   1.00
H1       0.40320    0.22174    0.30351   1.00
H1       0.59632    0.22184    0.30418   1.00
O3       0.46039    0.21058    0.34640   1.00
O3       0.53901    0.18665    0.33385   1.00
Si1      0.45753    0.24322    0.38100   1.00
Si1      0.54721    0.14159    0.32082   1.00
C6       0.42462    0.21759    0.41123   1.00
C6       0.50402    0.24669    0.40276   1.00
C6       0.43747    0.28796    0.36520   1.00
C6       0.53307    0.12691    0.27342   1.00
C6       0.59802    0.13717    0.32560   1.00
C6       0.52523    0.11132    0.35607   1.00
C6       0.38806    0.19972    0.39032   1.00
H2       0.44209    0.19259    0.42050   1.00
C6       0.40853    0.23631    0.44983   1.00
H2       0.51642    0.21807    0.39639   1.00
C6       0.53366    0.27706    0.38592   1.00
C6       0.50664    0.25137    0.44812   1.00
H2       0.41169    0.27842    0.34902   1.00
C6       0.42228    0.31665    0.39741   1.00
C6       0.46151    0.31476    0.33677   1.00
C6       0.48929    0.13192    0.26156   1.00
C6       0.55775    0.14033    0.23736   1.00
H2       0.53788    0.09544    0.27441   1.00
H2       0.60949    0.15506    0.30189   1.00
C6       0.61622    0.15450    0.36377   1.00
C6       0.61607    0.09559    0.32028   1.00
H2       0.54625    0.11081    0.38001   1.00
C6       0.48664    0.12668    0.37463   1.00
C6       0.51756    0.06761    0.34513   1.00
H2       0.39654    0.18067    0.36621   1.00
H2       0.36910    0.22256    0.37865   1.00
H2       0.37083    0.18190    0.41040   1.00
H2       0.40392    0.21368    0.47185   1.00
H2       0.42822    0.25783    0.46229   1.00
H2       0.38036    0.25058    0.44551   1.00
H2       0.56328    0.27071    0.39598   1.00
H2       0.53468    0.27643    0.35420   1.00
H2       0.52648    0.30663    0.39534   1.00
H2       0.49138    0.22780    0.46315   1.00
H2       0.53692    0.25016    0.45818   1.00
H2       0.49450    0.27930    0.45753   1.00
H2       0.44486    0.32258    0.41911   1.00
H2       0.41292    0.34461    0.38515   1.00
H2       0.39668    0.30504    0.41206   1.00
H2       0.48098    0.33447    0.35248   1.00
H2       0.47932    0.29862    0.31625   1.00
H2       0.44172    0.33291    0.31951   1.00
H2       0.48312    0.16144    0.25152   1.00
H2       0.48191    0.11220    0.23758   1.00
H2       0.46952    0.12523    0.28549   1.00
H2       0.54875    0.12457    0.21109   1.00
H2       0.55426    0.17127    0.23120   1.00
H2       0.58878    0.13434    0.24114   1.00
H2       0.64798    0.15640    0.36110   1.00
H2       0.60565    0.18407    0.36932   1.00
H2       0.60965    0.13665    0.38930   1.00
H2       0.60584    0.08162    0.29356   1.00
H2       0.64788    0.09745    0.31821   1.00
H2       0.60915    0.07665    0.34496   1.00
H2       0.46344    0.12994    0.35311   1.00
H2       0.47619    0.10737    0.39774   1.00
H2       0.49166    0.15503    0.38784   1.00
H2       0.50956    0.05069    0.37099   1.00
H2       0.49378    0.06487    0.32407   1.00
H2       0.54343    0.05382    0.33280   1.00
C4       1.02084    0.24960    0.25302   1.00
C4       0.97912    0.25019    0.25259   1.00
C3       1.04364    0.26411    0.28442   1.00
C3       0.95616    0.26850    0.28182   1.00
C3       1.04123    0.23425    0.22009   1.00
C3       0.95886    0.23143    0.22140   1.00
C2       1.10512    0.24913    0.25083   1.00
C2       0.89488    0.25087    0.24917   1.00
C3       1.08462    0.26410    0.28329   1.00
C3       0.91519    0.26853    0.28038   1.00
C3       1.08258    0.23383    0.21983   1.00
C3       0.91762    0.23324    0.21961   1.00
H1       1.03115    0.27499    0.30910   1.00
H1       0.96852    0.28257    0.30490   1.00
C5       1.02020    0.21926    0.18773   1.00
C5       0.97980    0.21128    0.19197   1.00
H1       1.09955    0.27524    0.30675   1.00
H1       0.90010    0.28194    0.30251   1.00
H1       1.09680    0.22174    0.19649   1.00
H1       0.90368    0.22184    0.19582   1.00
O3       1.03961    0.21058    0.15360   1.00
O3       0.96099    0.18665    0.16615   1.00
Si1      1.04247    0.24322    0.11900   1.00
Si1      0.95279    0.14159    0.17918   1.00
C6       1.07538    0.21759    0.08877   1.00
C6       0.99598    0.24669    0.09724   1.00
C6       1.06253    0.28796    0.13480   1.00
C6       0.96693    0.12691    0.22658   1.00
C6       0.90198    0.13717    0.17440   1.00
C6       0.97477    0.11132    0.14393   1.00
C6       1.11194    0.19972    0.10968   1.00
H2       1.05791    0.19259    0.07950   1.00
C6       1.09147    0.23631    0.05017   1.00
H2       0.98358    0.21807    0.10361   1.00
C6       0.96634    0.27706    0.11408   1.00
C6       0.99336    0.25137    0.05188   1.00
H2       1.08831    0.27842    0.15098   1.00
C6       1.07772    0.31665    0.10259   1.00
C6       1.03849    0.31476    0.16323   1.00
C6       1.01071    0.13192    0.23844   1.00
C6       0.94225    0.14033    0.26264   1.00
H2       0.96212    0.09544    0.22559   1.00
H2       0.89051    0.15506    0.19811   1.00
C6       0.88378    0.15450    0.13623   1.00
C6       0.88393    0.09559    0.17972   1.00
H2       0.95375    0.11081    0.11999   1.00
C6       1.01336    0.12668    0.12537   1.00
C6       0.98244    0.06761    0.15487   1.00
H2       1.10346    0.18067    0.13379   1.00
H2       1.13090    0.22256    0.12135   1.00
H2       1.12917    0.18190    0.08960   1.00
H2       1.09608    0.21368    0.02815   1.00
H2       1.07178    0.25783    0.03771   1.00
H2       1.11964    0.25058    0.05449   1.00
H2       0.93672    0.27071    0.10402   1.00
H2       0.96532    0.27643    0.14580   1.00
H2       0.97352    0.30663    0.10466   1.00
H2       1.00862    0.22780    0.03685   1.00
H2       0.96308    0.25016    0.04182   1.00
H2       1.00550    0.27930    0.04247   1.00
H2       1.05514    0.32258    0.08089   1.00
H2       1.08708    0.34461    0.11485   1.00
H2       1.10332    0.30504    0.08794   1.00
H2       1.01902    0.33447    0.14752   1.00
H2       1.02068    0.29862    0.18375   1.00
H2       1.05828    0.33291    0.18049   1.00
H2       1.01688    0.16144    0.24848   1.00
H2       1.01809    0.11220    0.26242   1.00
H2       1.03048    0.12523    0.21451   1.00
H2       0.95125    0.12457    0.28891   1.00
H2       0.94574    0.17127    0.26880   1.00
H2       0.91122    0.13434    0.25886   1.00
H2       0.85202    0.15640    0.13890   1.00
H2       0.89435    0.18407    0.13068   1.00
H2       0.89035    0.13665    0.11070   1.00
H2       0.89416    0.08162    0.20644   1.00
H2       0.85212    0.09745    0.18179   1.00
H2       0.89085    0.07665    0.15504   1.00
H2       1.03656    0.12994    0.14689   1.00
H2       1.02381    0.10737    0.10226   1.00
H2       1.00834    0.15503    0.11216   1.00
H2       0.99044    0.05069    0.12901   1.00
H2       1.00622    0.06487    0.17593   1.00
H2       0.95657    0.05382    0.16720   1.00
C4       0.74698    -0.02084   0.24960   1.00
C4       0.74741    0.02088    0.25019   1.00
C3       0.71558    -0.04364   0.26411   1.00
C3       0.71818    0.04384    0.26850   1.00
C3       0.77991    -0.04123   0.23425   1.00
C3       0.77860    0.04114    0.23143   1.00
C2       0.74917    -0.10512   0.24913   1.00
C2       0.75083    0.10512    0.25087   1.00
C3       0.71671    -0.08462   0.26410   1.00
C3       0.71962    0.08481    0.26853   1.00
C3       0.78017    -0.08258   0.23383   1.00
C3       0.78039    0.08238    0.23324   1.00
H1       0.69090    -0.03115   0.27499   1.00
H1       0.69510    0.03148    0.28257   1.00
C5       0.81227    -0.02020   0.21926   1.00
C5       0.80803    0.02020    0.21128   1.00
H1       0.69325    -0.09955   0.27524   1.00
H1       0.69749    0.09990    0.28194   1.00
H1       0.80351    -0.09680   0.22174   1.00
H1       0.80418    0.09632    0.22184   1.00
O3       0.84640    -0.03961   0.21058   1.00
O3       0.83385    0.03901    0.18665   1.00
Si1      0.88100    -0.04247   0.24322   1.00
Si1      0.82082    0.04721    0.14159   1.00
C6       0.91123    -0.07538   0.21759   1.00
C6       0.90276    0.00402    0.24669   1.00
C6       0.86520    -0.06253   0.28796   1.00
C6       0.77342    0.03307    0.12691   1.00
C6       0.82560    0.09802    0.13717   1.00
C6       0.85607    0.02523    0.11132   1.00
C6       0.89032    -0.11194   0.19972   1.00
H2       0.92050    -0.05791   0.19259   1.00
C6       0.94983    -0.09147   0.23631   1.00
H2       0.89639    0.01642    0.21807   1.00
C6       0.88592    0.03366    0.27706   1.00
C6       0.94812    0.00664    0.25137   1.00
H2       0.84902    -0.08831   0.27842   1.00
C6       0.89741    -0.07772   0.31665   1.00
C6       0.83677    -0.03849   0.31476   1.00
C6       0.76156    -0.01071   0.13192   1.00
C6       0.73736    0.05775    0.14033   1.00
H2       0.77441    0.03788    0.09544   1.00
H2       0.80189    0.10949    0.15506   1.00
C6       0.86377    0.11622    0.15450   1.00
C6       0.82028    0.11607    0.09559   1.00
H2       0.88001    0.04625    0.11081   1.00
C6       0.87463    -0.01336   0.12668   1.00
C6       0.84513    0.01756    0.06761   1.00
H2       0.86621    -0.10346   0.18067   1.00
H2       0.87865    -0.13090   0.22256   1.00
H2       0.91040    -0.12917   0.18190   1.00
H2       0.97185    -0.09608   0.21368   1.00
H2       0.96229    -0.07178   0.25783   1.00
H2       0.94551    -0.11964   0.25058   1.00
H2       0.89598    0.06328    0.27071   1.00
H2       0.85420    0.03468    0.27643   1.00
H2       0.89534    0.02648    0.30663   1.00
H2       0.96315    -0.00862   0.22780   1.00
H2       0.95818    0.03692    0.25016   1.00
H2       0.95753    -0.00550   0.27930   1.00
H2       0.91911    -0.05514   0.32258   1.00
H2       0.88515    -0.08708   0.34461   1.00
H2       0.91206    -0.10332   0.30504   1.00
H2       0.85248    -0.01902   0.33447   1.00
H2       0.81625    -0.02068   0.29862   1.00
H2       0.81951    -0.05828   0.33291   1.00
H2       0.75152    -0.01688   0.16144   1.00
H2       0.73758    -0.01809   0.11220   1.00
H2       0.78549    -0.03048   0.12523   1.00
H2       0.71109    0.04875    0.12457   1.00
H2       0.73120    0.05426    0.17127   1.00
H2       0.74114    0.08878    0.13434   1.00
H2       0.86110    0.14798    0.15640   1.00
H2       0.86932    0.10565    0.18407   1.00
H2       0.88930    0.10965    0.13665   1.00
H2       0.79356    0.10584    0.08162   1.00
H2       0.81821    0.14788    0.09745   1.00
H2       0.84496    0.10915    0.07665   1.00
H2       0.85311    -0.03656   0.12994   1.00
H2       0.89774    -0.02381   0.10737   1.00
H2       0.88784    -0.00834   0.15503   1.00
H2       0.87099    0.00956    0.05069   1.00
H2       0.82407    -0.00622   0.06487   1.00
H2       0.83280    0.04343    0.05382   1.00
C4       0.74960    0.24698    -0.02084   1.00
C4       0.75019    0.24741    0.02088   1.00
C3       0.76411    0.21558    -0.04364   1.00
C3       0.76850    0.21818    0.04384   1.00
C3       0.73425    0.27991    -0.04123   1.00
C3       0.73143    0.27860    0.04114   1.00
C2       0.74913    0.24917    -0.10512   1.00
C2       0.75087    0.25083    0.10512   1.00
C3       0.76410    0.21671    -0.08462   1.00
C3       0.76853    0.21962    0.08481   1.00
C3       0.73383    0.28017    -0.08258   1.00
C3       0.73324    0.28039    0.08238   1.00
H1       0.77499    0.19090    -0.03115   1.00
H1       0.78257    0.19510    0.03148   1.00
C5       0.71926    0.31227    -0.02020   1.00
C5       0.71128    0.30803    0.02020   1.00
H1       0.77524    0.19325    -0.09955   1.00
H1       0.78194    0.19749    0.09990   1.00
H1       0.72174    0.30351    -0.09680   1.00
H1       0.72184    0.30418    0.09632   1.00
O3       0.71058    0.34640    -0.03961   1.00
O3       0.68665    0.33385    0.03901   1.00
Si1      0.74322    0.38100    -0.04247   1.00
Si1      0.64159    0.32082    0.04721   1.00
C6       0.71759    0.41123    -0.07538   1.00
C6       0.74669    0.40276    0.00402   1.00
C6       0.78796    0.36520    -0.06253   1.00
C6       0.62691    0.27342    0.03307   1.00
C6       0.63717    0.32560    0.09802   1.00
C6       0.61132    0.35607    0.02523   1.00
C6       0.69972    0.39032    -0.11194   1.00
H2       0.69259    0.42050    -0.05791   1.00
C6       0.73631    0.44983    -0.09147   1.00
H2       0.71807    0.39639    0.01642   1.00
C6       0.77706    0.38592    0.03366   1.00
C6       0.75137    0.44812    0.00664   1.00
H2       0.77842    0.34902    -0.08831   1.00
C6       0.81665    0.39741    -0.07772   1.00
C6       0.81476    0.33677    -0.03849   1.00
C6       0.63192    0.26156    -0.01071   1.00
C6       0.64033    0.23736    0.05775   1.00
H2       0.59544    0.27441    0.03788   1.00
H2       0.65506    0.30189    0.10949   1.00
C6       0.65450    0.36377    0.11622   1.00
C6       0.59559    0.32028    0.11607   1.00
H2       0.61081    0.38001    0.04625   1.00
C6       0.62668    0.37463    -0.01336   1.00
C6       0.56761    0.34513    0.01756   1.00
H2       0.68067    0.36621    -0.10346   1.00
H2       0.72256    0.37865    -0.13090   1.00
H2       0.68190    0.41040    -0.12917   1.00
H2       0.71368    0.47185    -0.09608   1.00
H2       0.75783    0.46229    -0.07178   1.00
H2       0.75058    0.44551    -0.11964   1.00
H2       0.77071    0.39598    0.06328   1.00
H2       0.77643    0.35420    0.03468   1.00
H2       0.80663    0.39534    0.02648   1.00
H2       0.72780    0.46315    -0.00862   1.00
H2       0.75016    0.45818    0.03692   1.00
H2       0.77930    0.45753    -0.00550   1.00
H2       0.82258    0.41911    -0.05514   1.00
H2       0.84461    0.38515    -0.08708   1.00
H2       0.80504    0.41206    -0.10332   1.00
H2       0.83447    0.35248    -0.01902   1.00
H2       0.79862    0.31625    -0.02068   1.00
H2       0.83291    0.31951    -0.05828   1.00
H2       0.66144    0.25152    -0.01688   1.00
H2       0.61220    0.23758    -0.01809   1.00
H2       0.62523    0.28549    -0.03048   1.00
H2       0.62457    0.21109    0.04875   1.00
H2       0.67127    0.23120    0.05426   1.00
H2       0.63434    0.24114    0.08878   1.00
H2       0.65640    0.36110    0.14798   1.00
H2       0.68407    0.36932    0.10565   1.00
H2       0.63665    0.38930    0.10965   1.00
H2       0.58162    0.29356    0.10584   1.00
H2       0.59745    0.31821    0.14788   1.00
H2       0.57665    0.34496    0.10915   1.00
H2       0.62994    0.35311    -0.03656   1.00
H2       0.60737    0.39774    -0.02381   1.00
H2       0.65503    0.38784    -0.00834   1.00
H2       0.55069    0.37099    0.00956   1.00
H2       0.56487    0.32407    -0.00622   1.00
H2       0.55382    0.33280    0.04343   1.00
C4       0.91460    0.91802    1.18584   1.00
C4       0.91519    0.91759    1.14412   1.00
C3       0.92911    0.94942    1.20864   1.00
C3       0.93350    0.94682    1.12116   1.00
C3       0.89925    0.88509    1.20623   1.00
C3       0.89643    0.88640    1.12386   1.00
C2       0.91413    0.91583    1.27012   1.00
C2       0.91587    0.91417    1.05988   1.00
C3       0.92910    0.94829    1.24962   1.00
C3       0.93353    0.94538    1.08019   1.00
C3       0.89883    0.88483    1.24758   1.00
C3       0.89824    0.88461    1.08262   1.00
H1       0.93999    0.97410    1.19615   1.00
H1       0.94757    0.96990    1.13352   1.00
C5       0.88426    0.85273    1.18520   1.00
C5       0.87628    0.85697    1.14480   1.00
H1       0.94024    0.97175    1.26455   1.00
H1       0.94694    0.96751    1.06510   1.00
H1       0.88674    0.86149    1.26180   1.00
H1       0.88684    0.86082    1.06868   1.00
O3       0.87558    0.81860    1.20461   1.00
O3       0.85165    0.83115    1.12599   1.00
Si1      0.90822    0.78400    1.20747   1.00
Si1      0.80659    0.84418    1.11779   1.00
C6       0.88259    0.75377    1.24038   1.00
C6       0.91169    0.76224    1.16098   1.00
C6       0.95296    0.79980    1.22753   1.00
C6       0.79191    0.89158    1.13193   1.00
C6       0.80217    0.83940    1.06698   1.00
C6       0.77632    0.80893    1.13977   1.00
C6       0.86472    0.77468    1.27694   1.00
H2       0.85759    0.74450    1.22291   1.00
C6       0.90131    0.71517    1.25647   1.00
H2       0.88307    0.76861    1.14858   1.00
C6       0.94206    0.77908    1.13134   1.00
C6       0.91637    0.71688    1.15836   1.00
H2       0.94342    0.81598    1.25331   1.00
C6       0.98165    0.76759    1.24272   1.00
C6       0.97976    0.82823    1.20349   1.00
C6       0.79692    0.90344    1.17571   1.00
C6       0.80533    0.92764    1.10725   1.00
H2       0.76044    0.89059    1.12712   1.00
H2       0.82006    0.86311    1.05551   1.00
C6       0.81950    0.80123    1.04878   1.00
C6       0.76059    0.84472    1.04893   1.00
H2       0.77581    0.78499    1.11875   1.00
C6       0.79168    0.79037    1.17836   1.00
C6       0.73261    0.81987    1.14744   1.00
H2       0.84567    0.79879    1.26846   1.00
H2       0.88756    0.78635    1.29590   1.00
H2       0.84690    0.75460    1.29417   1.00
H2       0.87868    0.69315    1.26108   1.00
H2       0.92283    0.70271    1.23678   1.00
H2       0.91558    0.71949    1.28464   1.00
H2       0.93571    0.76902    1.10172   1.00
H2       0.94143    0.81080    1.13032   1.00
H2       0.97163    0.76966    1.13852   1.00
H2       0.89280    0.70185    1.17362   1.00
H2       0.91516    0.70682    1.12808   1.00
H2       0.94430    0.70747    1.17050   1.00
H2       0.98758    0.74589    1.22014   1.00
H2       1.00961    0.77985    1.25208   1.00
H2       0.97004    0.75294    1.26832   1.00
H2       0.99947    0.81252    1.18402   1.00
H2       0.96362    0.84875    1.18568   1.00
H2       0.99791    0.84549    1.22328   1.00
H2       0.82644    0.91348    1.18188   1.00
H2       0.77720    0.92742    1.18309   1.00
H2       0.79023    0.87951    1.19548   1.00
H2       0.78957    0.95391    1.11625   1.00
H2       0.83627    0.93380    1.11074   1.00
H2       0.79934    0.92386    1.07622   1.00
H2       0.82140    0.80390    1.01702   1.00
H2       0.84907    0.79568    1.05935   1.00
H2       0.80165    0.77570    1.05535   1.00
H2       0.74662    0.87144    1.05916   1.00
H2       0.76245    0.84679    1.01712   1.00
H2       0.74165    0.82004    1.05585   1.00
H2       0.79494    0.81189    1.20156   1.00
H2       0.77237    0.76726    1.18881   1.00
H2       0.82003    0.77716    1.17334   1.00
H2       0.71569    0.79401    1.15544   1.00
H2       0.72987    0.84093    1.17122   1.00
H2       0.71882    0.83220    1.12157   1.00
C4       0.91802    1.18584    0.91460   1.00
C4       0.91759    1.14412    0.91519   1.00
C3       0.94942    1.20864    0.92911   1.00
C3       0.94682    1.12116    0.93350   1.00
C3       0.88509    1.20623    0.89925   1.00
C3       0.88640    1.12386    0.89643   1.00
C2       0.91583    1.27012    0.91413   1.00
C2       0.91417    1.05988    0.91587   1.00
C3       0.94829    1.24962    0.92910   1.00
C3       0.94538    1.08019    0.93353   1.00
C3       0.88483    1.24758    0.89883   1.00
C3       0.88461    1.08262    0.89824   1.00
H1       0.97410    1.19615    0.93999   1.00
H1       0.96990    1.13352    0.94757   1.00
C5       0.85273    1.18520    0.88426   1.00
C5       0.85697    1.14480    0.87628   1.00
H1       0.97175    1.26455    0.94024   1.00
H1       0.96751    1.06510    0.94694   1.00
H1       0.86149    1.26180    0.88674   1.00
H1       0.86082    1.06868    0.88684   1.00
O3       0.81860    1.20461    0.87558   1.00
O3       0.83115    1.12599    0.85165   1.00
Si1      0.78400    1.20747    0.90822   1.00
Si1      0.84418    1.11779    0.80659   1.00
C6       0.75377    1.24038    0.88259   1.00
C6       0.76224    1.16098    0.91169   1.00
C6       0.79980    1.22753    0.95296   1.00
C6       0.89158    1.13193    0.79191   1.00
C6       0.83940    1.06698    0.80217   1.00
C6       0.80893    1.13977    0.77632   1.00
C6       0.77468    1.27694    0.86472   1.00
H2       0.74450    1.22291    0.85759   1.00
C6       0.71517    1.25647    0.90131   1.00
H2       0.76861    1.14858    0.88307   1.00
C6       0.77908    1.13134    0.94206   1.00
C6       0.71688    1.15836    0.91637   1.00
H2       0.81598    1.25331    0.94342   1.00
C6       0.76759    1.24272    0.98165   1.00
C6       0.82823    1.20349    0.97976   1.00
C6       0.90344    1.17571    0.79692   1.00
C6       0.92764    1.10725    0.80533   1.00
H2       0.89059    1.12712    0.76044   1.00
H2       0.86311    1.05551    0.82006   1.00
C6       0.80123    1.04878    0.81950   1.00
C6       0.84472    1.04893    0.76059   1.00
H2       0.78499    1.11875    0.77581   1.00
C6       0.79037    1.17836    0.79168   1.00
C6       0.81987    1.14744    0.73261   1.00
H2       0.79879    1.26846    0.84567   1.00
H2       0.78635    1.29590    0.88756   1.00
H2       0.75460    1.29417    0.84690   1.00
H2       0.69315    1.26108    0.87868   1.00
H2       0.70271    1.23678    0.92283   1.00
H2       0.71949    1.28464    0.91558   1.00
H2       0.76902    1.10172    0.93571   1.00
H2       0.81080    1.13032    0.94143   1.00
H2       0.76966    1.13852    0.97163   1.00
H2       0.70185    1.17362    0.89280   1.00
H2       0.70682    1.12808    0.91516   1.00
H2       0.70747    1.17050    0.94430   1.00
H2       0.74589    1.22014    0.98758   1.00
H2       0.77985    1.25208    1.00961   1.00
H2       0.75294    1.26832    0.97004   1.00
H2       0.81252    1.18402    0.99947   1.00
H2       0.84875    1.18568    0.96362   1.00
H2       0.84549    1.22328    0.99791   1.00
H2       0.91348    1.18188    0.82644   1.00
H2       0.92742    1.18309    0.77720   1.00
H2       0.87951    1.19548    0.79023   1.00
H2       0.95391    1.11625    0.78957   1.00
H2       0.93380    1.11074    0.83627   1.00
H2       0.92386    1.07622    0.79934   1.00
H2       0.80390    1.01702    0.82140   1.00
H2       0.79568    1.05935    0.84907   1.00
H2       0.77570    1.05535    0.80165   1.00
H2       0.87144    1.05916    0.74662   1.00
H2       0.84679    1.01712    0.76245   1.00
H2       0.82004    1.05585    0.74165   1.00
H2       0.81189    1.20156    0.79494   1.00
H2       0.76726    1.18881    0.77237   1.00
H2       0.77716    1.17334    0.82003   1.00
H2       0.79401    1.15544    0.71569   1.00
H2       0.84093    1.17122    0.72987   1.00
H2       0.83220    1.12157    0.71882   1.00
C4       0.64416    0.91460    0.91198   1.00
C4       0.68588    0.91519    0.91241   1.00
C3       0.62136    0.92911    0.88058   1.00
C3       0.70884    0.93350    0.88318   1.00
C3       0.62377    0.89925    0.94491   1.00
C3       0.70614    0.89643    0.94360   1.00
C2       0.55988    0.91413    0.91417   1.00
C2       0.77012    0.91587    0.91583   1.00
C3       0.58038    0.92910    0.88171   1.00
C3       0.74981    0.93353    0.88462   1.00
C3       0.58242    0.89883    0.94517   1.00
C3       0.74738    0.89824    0.94539   1.00
H1       0.63385    0.93999    0.85590   1.00
H1       0.69648    0.94757    0.86010   1.00
C5       0.64480    0.88426    0.97727   1.00
C5       0.68520    0.87628    0.97303   1.00
H1       0.56545    0.94024    0.85825   1.00
H1       0.76490    0.94694    0.86249   1.00
H1       0.56820    0.88674    0.96851   1.00
H1       0.76132    0.88684    0.96918   1.00
O3       0.62539    0.87558    1.01140   1.00
O3       0.70401    0.85165    0.99885   1.00
Si1      0.62253    0.90822    1.04600   1.00
Si1      0.71221    0.80659    0.98582   1.00
C6       0.58962    0.88259    1.07623   1.00
C6       0.66902    0.91169    1.06776   1.00
C6       0.60247    0.95296    1.03020   1.00
C6       0.69807    0.79191    0.93842   1.00
C6       0.76302    0.80217    0.99060   1.00
C6       0.69023    0.77632    1.02107   1.00
C6       0.55306    0.86472    1.05532   1.00
H2       0.60709    0.85759    1.08550   1.00
C6       0.57353    0.90131    1.11483   1.00
H2       0.68142    0.88307    1.06139   1.00
C6       0.69866    0.94206    1.05092   1.00
C6       0.67164    0.91637    1.11312   1.00
H2       0.57669    0.94342    1.01402   1.00
C6       0.58728    0.98165    1.06241   1.00
C6       0.62651    0.97976    1.00177   1.00
C6       0.65429    0.79692    0.92656   1.00
C6       0.72275    0.80533    0.90236   1.00
H2       0.70288    0.76044    0.93941   1.00
H2       0.77449    0.82006    0.96689   1.00
C6       0.78122    0.81950    1.02877   1.00
C6       0.78107    0.76059    0.98528   1.00
H2       0.71125    0.77581    1.04501   1.00
C6       0.65164    0.79168    1.03963   1.00
C6       0.68256    0.73261    1.01013   1.00
H2       0.56154    0.84567    1.03121   1.00
H2       0.53410    0.88756    1.04365   1.00
H2       0.53583    0.84690    1.07540   1.00
H2       0.56892    0.87868    1.13685   1.00
H2       0.59322    0.92283    1.12729   1.00
H2       0.54536    0.91558    1.11051   1.00
H2       0.72828    0.93571    1.06098   1.00
H2       0.69968    0.94143    1.01920   1.00
H2       0.69148    0.97163    1.06034   1.00
H2       0.65638    0.89280    1.12815   1.00
H2       0.70192    0.91516    1.12318   1.00
H2       0.65950    0.94430    1.12253   1.00
H2       0.60986    0.98758    1.08411   1.00
H2       0.57792    1.00961    1.05015   1.00
H2       0.56168    0.97004    1.07706   1.00
H2       0.64598    0.99947    1.01748   1.00
H2       0.64432    0.96362    0.98125   1.00
H2       0.60672    0.99791    0.98451   1.00
H2       0.64812    0.82644    0.91652   1.00
H2       0.64691    0.77720    0.90258   1.00
H2       0.63452    0.79023    0.95049   1.00
H2       0.71375    0.78957    0.87609   1.00
H2       0.71926    0.83627    0.89620   1.00
H2       0.75378    0.79934    0.90614   1.00
H2       0.81298    0.82140    1.02610   1.00
H2       0.77065    0.84907    1.03432   1.00
H2       0.77465    0.80165    1.05430   1.00
H2       0.77084    0.74662    0.95856   1.00
H2       0.81288    0.76245    0.98321   1.00
H2       0.77415    0.74165    1.00996   1.00
H2       0.62844    0.79494    1.01811   1.00
H2       0.64119    0.77237    1.06274   1.00
H2       0.65666    0.82003    1.05284   1.00
H2       0.67456    0.71569    1.03599   1.00
H2       0.65878    0.72987    0.98907   1.00
H2       0.70843    0.71882    0.99780   1.00
C4       1.18584    0.91460    0.91802   1.00
C4       1.14412    0.91519    0.91759   1.00
C3       1.20864    0.92911    0.94942   1.00
C3       1.12116    0.93350    0.94682   1.00
C3       1.20623    0.89925    0.88509   1.00
C3       1.12386    0.89643    0.88640   1.00
C2       1.27012    0.91413    0.91583   1.00
C2       1.05988    0.91587    0.91417   1.00
C3       1.24962    0.92910    0.94829   1.00
C3       1.08019    0.93353    0.94538   1.00
C3       1.24758    0.89883    0.88483   1.00
C3       1.08262    0.89824    0.88461   1.00
H1       1.19615    0.93999    0.97410   1.00
H1       1.13352    0.94757    0.96990   1.00
C5       1.18520    0.88426    0.85273   1.00
C5       1.14480    0.87628    0.85697   1.00
H1       1.26455    0.94024    0.97175   1.00
H1       1.06510    0.94694    0.96751   1.00
H1       1.26180    0.88674    0.86149   1.00
H1       1.06868    0.88684    0.86082   1.00
O3       1.20461    0.87558    0.81860   1.00
O3       1.12599    0.85165    0.83115   1.00
Si1      1.20747    0.90822    0.78400   1.00
Si1      1.11779    0.80659    0.84418   1.00
C6       1.24038    0.88259    0.75377   1.00
C6       1.16098    0.91169    0.76224   1.00
C6       1.22753    0.95296    0.79980   1.00
C6       1.13193    0.79191    0.89158   1.00
C6       1.06698    0.80217    0.83940   1.00
C6       1.13977    0.77632    0.80893   1.00
C6       1.27694    0.86472    0.77468   1.00
H2       1.22291    0.85759    0.74450   1.00
C6       1.25647    0.90131    0.71517   1.00
H2       1.14858    0.88307    0.76861   1.00
C6       1.13134    0.94206    0.77908   1.00
C6       1.15836    0.91637    0.71688   1.00
H2       1.25331    0.94342    0.81598   1.00
C6       1.24272    0.98165    0.76759   1.00
C6       1.20349    0.97976    0.82823   1.00
C6       1.17571    0.79692    0.90344   1.00
C6       1.10725    0.80533    0.92764   1.00
H2       1.12712    0.76044    0.89059   1.00
H2       1.05551    0.82006    0.86311   1.00
C6       1.04878    0.81950    0.80123   1.00
C6       1.04893    0.76059    0.84472   1.00
H2       1.11875    0.77581    0.78499   1.00
C6       1.17836    0.79168    0.79037   1.00
C6       1.14744    0.73261    0.81987   1.00
H2       1.26846    0.84567    0.79879   1.00
H2       1.29590    0.88756    0.78635   1.00
H2       1.29417    0.84690    0.75460   1.00
H2       1.26108    0.87868    0.69315   1.00
H2       1.23678    0.92283    0.70271   1.00
H2       1.28464    0.91558    0.71949   1.00
H2       1.10172    0.93571    0.76902   1.00
H2       1.13032    0.94143    0.81080   1.00
H2       1.13852    0.97163    0.76966   1.00
H2       1.17362    0.89280    0.70185   1.00
H2       1.12808    0.91516    0.70682   1.00
H2       1.17050    0.94430    0.70747   1.00
H2       1.22014    0.98758    0.74589   1.00
H2       1.25208    1.00961    0.77985   1.00
H2       1.26832    0.97004    0.75294   1.00
H2       1.18402    0.99947    0.81252   1.00
H2       1.18568    0.96362    0.84875   1.00
H2       1.22328    0.99791    0.84549   1.00
H2       1.18188    0.82644    0.91348   1.00
H2       1.18309    0.77720    0.92742   1.00
H2       1.19548    0.79023    0.87951   1.00
H2       1.11625    0.78957    0.95391   1.00
H2       1.11074    0.83627    0.93380   1.00
H2       1.07622    0.79934    0.92386   1.00
H2       1.01702    0.82140    0.80390   1.00
H2       1.05935    0.84907    0.79568   1.00
H2       1.05535    0.80165    0.77570   1.00
H2       1.05916    0.74662    0.87144   1.00
H2       1.01712    0.76245    0.84679   1.00
H2       1.05585    0.74165    0.82004   1.00
H2       1.20156    0.79494    0.81189   1.00
H2       1.18881    0.77237    0.76726   1.00
H2       1.17334    0.82003    0.77716   1.00
H2       1.15544    0.71569    0.79401   1.00
H2       1.17122    0.72987    0.84093   1.00
H2       1.12157    0.71882    0.83220   1.00
C4       0.91198    0.64416    0.91460   1.00
C4       0.91241    0.68588    0.91519   1.00
C3       0.88058    0.62136    0.92911   1.00
C3       0.88318    0.70884    0.93350   1.00
C3       0.94491    0.62377    0.89925   1.00
C3       0.94360    0.70614    0.89643   1.00
C2       0.91417    0.55988    0.91413   1.00
C2       0.91583    0.77012    0.91587   1.00
C3       0.88171    0.58038    0.92910   1.00
C3       0.88462    0.74981    0.93353   1.00
C3       0.94517    0.58242    0.89883   1.00
C3       0.94539    0.74738    0.89824   1.00
H1       0.85590    0.63385    0.93999   1.00
H1       0.86010    0.69648    0.94757   1.00
C5       0.97727    0.64480    0.88426   1.00
C5       0.97303    0.68520    0.87628   1.00
H1       0.85825    0.56545    0.94024   1.00
H1       0.86249    0.76490    0.94694   1.00
H1       0.96851    0.56820    0.88674   1.00
H1       0.96918    0.76132    0.88684   1.00
O3       1.01140    0.62539    0.87558   1.00
O3       0.99885    0.70401    0.85165   1.00
Si1      1.04600    0.62253    0.90822   1.00
Si1      0.98582    0.71221    0.80659   1.00
C6       1.07623    0.58962    0.88259   1.00
C6       1.06776    0.66902    0.91169   1.00
C6       1.03020    0.60247    0.95296   1.00
C6       0.93842    0.69807    0.79191   1.00
C6       0.99060    0.76302    0.80217   1.00
C6       1.02107    0.69023    0.77632   1.00
C6       1.05532    0.55306    0.86472   1.00
H2       1.08550    0.60709    0.85759   1.00
C6       1.11483    0.57353    0.90131   1.00
H2       1.06139    0.68142    0.88307   1.00
C6       1.05092    0.69866    0.94206   1.00
C6       1.11312    0.67164    0.91637   1.00
H2       1.01402    0.57669    0.94342   1.00
C6       1.06241    0.58728    0.98165   1.00
C6       1.00177    0.62651    0.97976   1.00
C6       0.92656    0.65429    0.79692   1.00
C6       0.90236    0.72275    0.80533   1.00
H2       0.93941    0.70288    0.76044   1.00
H2       0.96689    0.77449    0.82006   1.00
C6       1.02877    0.78122    0.81950   1.00
C6       0.98528    0.78107    0.76059   1.00
H2       1.04501    0.71125    0.77581   1.00
C6       1.03963    0.65164    0.79168   1.00
C6       1.01013    0.68256    0.73261   1.00
H2       1.03121    0.56154    0.84567   1.00
H2       1.04365    0.53410    0.88756   1.00
H2       1.07540    0.53583    0.84690   1.00
H2       1.13685    0.56892    0.87868   1.00
H2       1.12729    0.59322    0.92283   1.00
H2       1.11051    0.54536    0.91558   1.00
H2       1.06098    0.72828    0.93571   1.00
H2       1.01920    0.69968    0.94143   1.00
H2       1.06034    0.69148    0.97163   1.00
H2       1.12815    0.65638    0.89280   1.00
H2       1.12318    0.70192    0.91516   1.00
H2       1.12253    0.65950    0.94430   1.00
H2       1.08411    0.60986    0.98758   1.00
H2       1.05015    0.57792    1.00961   1.00
H2       1.07706    0.56168    0.97004   1.00
H2       1.01748    0.64598    0.99947   1.00
H2       0.98125    0.64432    0.96362   1.00
H2       0.98451    0.60672    0.99791   1.00
H2       0.91652    0.64812    0.82644   1.00
H2       0.90258    0.64691    0.77720   1.00
H2       0.95049    0.63452    0.79023   1.00
H2       0.87609    0.71375    0.78957   1.00
H2       0.89620    0.71926    0.83627   1.00
H2       0.90614    0.75378    0.79934   1.00
H2       1.02610    0.81298    0.82140   1.00
H2       1.03432    0.77065    0.84907   1.00
H2       1.05430    0.77465    0.80165   1.00
H2       0.95856    0.77084    0.74662   1.00
H2       0.98321    0.81288    0.76245   1.00
H2       1.00996    0.77415    0.74165   1.00
H2       1.01811    0.62844    0.79494   1.00
H2       1.06274    0.64119    0.77237   1.00
H2       1.05284    0.65666    0.82003   1.00
H2       1.03599    0.67456    0.71569   1.00
H2       0.98907    0.65878    0.72987   1.00
H2       0.99780    0.70843    0.71882   1.00
C4       0.91460    0.91198    0.64416   1.00
C4       0.91519    0.91241    0.68588   1.00
C3       0.92911    0.88058    0.62136   1.00
C3       0.93350    0.88318    0.70884   1.00
C3       0.89925    0.94491    0.62377   1.00
C3       0.89643    0.94360    0.70614   1.00
C2       0.91413    0.91417    0.55988   1.00
C2       0.91587    0.91583    0.77012   1.00
C3       0.92910    0.88171    0.58038   1.00
C3       0.93353    0.88462    0.74981   1.00
C3       0.89883    0.94517    0.58242   1.00
C3       0.89824    0.94539    0.74738   1.00
H1       0.93999    0.85590    0.63385   1.00
H1       0.94757    0.86010    0.69648   1.00
C5       0.88426    0.97727    0.64480   1.00
C5       0.87628    0.97303    0.68520   1.00
H1       0.94024    0.85825    0.56545   1.00
H1       0.94694    0.86249    0.76490   1.00
H1       0.88674    0.96851    0.56820   1.00
H1       0.88684    0.96918    0.76132   1.00
O3       0.87558    1.01140    0.62539   1.00
O3       0.85165    0.99885    0.70401   1.00
Si1      0.90822    1.04600    0.62253   1.00
Si1      0.80659    0.98582    0.71221   1.00
C6       0.88259    1.07623    0.58962   1.00
C6       0.91169    1.06776    0.66902   1.00
C6       0.95296    1.03020    0.60247   1.00
C6       0.79191    0.93842    0.69807   1.00
C6       0.80217    0.99060    0.76302   1.00
C6       0.77632    1.02107    0.69023   1.00
C6       0.86472    1.05532    0.55306   1.00
H2       0.85759    1.08550    0.60709   1.00
C6       0.90131    1.11483    0.57353   1.00
H2       0.88307    1.06139    0.68142   1.00
C6       0.94206    1.05092    0.69866   1.00
C6       0.91637    1.11312    0.67164   1.00
H2       0.94342    1.01402    0.57669   1.00
C6       0.98165    1.06241    0.58728   1.00
C6       0.97976    1.00177    0.62651   1.00
C6       0.79692    0.92656    0.65429   1.00
C6       0.80533    0.90236    0.72275   1.00
H2       0.76044    0.93941    0.70288   1.00
H2       0.82006    0.96689    0.77449   1.00
C6       0.81950    1.02877    0.78122   1.00
C6       0.76059    0.98528    0.78107   1.00
H2       0.77581    1.04501    0.71125   1.00
C6       0.79168    1.03963    0.65164   1.00
C6       0.73261    1.01013    0.68256   1.00
H2       0.84567    1.03121    0.56154   1.00
H2       0.88756    1.04365    0.53410   1.00
H2       0.84690    1.07540    0.53583   1.00
H2       0.87868    1.13685    0.56892   1.00
H2       0.92283    1.12729    0.59322   1.00
H2       0.91558    1.11051    0.54536   1.00
H2       0.93571    1.06098    0.72828   1.00
H2       0.94143    1.01920    0.69968   1.00
H2       0.97163    1.06034    0.69148   1.00
H2       0.89280    1.12815    0.65638   1.00
H2       0.91516    1.12318    0.70192   1.00
H2       0.94430    1.12253    0.65950   1.00
H2       0.98758    1.08411    0.60986   1.00
H2       1.00961    1.05015    0.57792   1.00
H2       0.97004    1.07706    0.56168   1.00
H2       0.99947    1.01748    0.64598   1.00
H2       0.96362    0.98125    0.64432   1.00
H2       0.99791    0.98451    0.60672   1.00
H2       0.82644    0.91652    0.64812   1.00
H2       0.77720    0.90258    0.64691   1.00
H2       0.79023    0.95049    0.63452   1.00
H2       0.78957    0.87609    0.71375   1.00
H2       0.83627    0.89620    0.71926   1.00
H2       0.79934    0.90614    0.75378   1.00
H2       0.82140    1.02610    0.81298   1.00
H2       0.84907    1.03432    0.77065   1.00
H2       0.80165    1.05430    0.77465   1.00
H2       0.74662    0.95856    0.77084   1.00
H2       0.76245    0.98321    0.81288   1.00
H2       0.74165    1.00996    0.77415   1.00
H2       0.79494    1.01811    0.62844   1.00
H2       0.77237    1.06274    0.64119   1.00
H2       0.82003    1.05284    0.65666   1.00
H2       0.71569    1.03599    0.67456   1.00
H2       0.72987    0.98907    0.65878   1.00
H2       0.71882    0.99780    0.70843   1.00
C4       0.41460    0.41802    1.18584   1.00
C4       0.41519    0.41759    1.14412   1.00
C3       0.42911    0.44942    1.20864   1.00
C3       0.43350    0.44682    1.12116   1.00
C3       0.39925    0.38509    1.20623   1.00
C3       0.39643    0.38640    1.12386   1.00
C2       0.41413    0.41583    1.27012   1.00
C2       0.41587    0.41417    1.05988   1.00
C3       0.42910    0.44829    1.24962   1.00
C3       0.43353    0.44538    1.08019   1.00
C3       0.39883    0.38483    1.24758   1.00
C3       0.39824    0.38461    1.08262   1.00
H1       0.43999    0.47410    1.19615   1.00
H1       0.44757    0.46990    1.13352   1.00
C5       0.38426    0.35273    1.18520   1.00
C5       0.37628    0.35697    1.14480   1.00
H1       0.44024    0.47175    1.26455   1.00
H1       0.44694    0.46751    1.06510   1.00
H1       0.38674    0.36149    1.26180   1.00
H1       0.38684    0.36082    1.06868   1.00
O3       0.37558    0.31860    1.20461   1.00
O3       0.35165    0.33115    1.12599   1.00
Si1      0.40822    0.28400    1.20747   1.00
Si1      0.30659    0.34418    1.11779   1.00
C6       0.38259    0.25377    1.24038   1.00
C6       0.41169    0.26224    1.16098   1.00
C6       0.45296    0.29980    1.22753   1.00
C6       0.29191    0.39158    1.13193   1.00
C6       0.30217    0.33940    1.06698   1.00
C6       0.27632    0.30893    1.13977   1.00
C6       0.36472    0.27468    1.27694   1.00
H2       0.35759    0.24450    1.22291   1.00
C6       0.40131    0.21517    1.25647   1.00
H2       0.38307    0.26861    1.14858   1.00
C6       0.44206    0.27908    1.13134   1.00
C6       0.41637    0.21688    1.15836   1.00
H2       0.44342    0.31598    1.25331   1.00
C6       0.48165    0.26759    1.24272   1.00
C6       0.47976    0.32823    1.20349   1.00
C6       0.29692    0.40344    1.17571   1.00
C6       0.30533    0.42764    1.10725   1.00
H2       0.26044    0.39059    1.12712   1.00
H2       0.32006    0.36311    1.05551   1.00
C6       0.31950    0.30123    1.04878   1.00
C6       0.26059    0.34472    1.04893   1.00
H2       0.27581    0.28499    1.11875   1.00
C6       0.29168    0.29037    1.17836   1.00
C6       0.23261    0.31987    1.14744   1.00
H2       0.34567    0.29879    1.26846   1.00
H2       0.38756    0.28635    1.29590   1.00
H2       0.34690    0.25460    1.29417   1.00
H2       0.37868    0.19315    1.26108   1.00
H2       0.42283    0.20271    1.23678   1.00
H2       0.41558    0.21949    1.28464   1.00
H2       0.43571    0.26902    1.10172   1.00
H2       0.44143    0.31080    1.13032   1.00
H2       0.47163    0.26966    1.13852   1.00
H2       0.39280    0.20185    1.17362   1.00
H2       0.41516    0.20682    1.12808   1.00
H2       0.44430    0.20747    1.17050   1.00
H2       0.48758    0.24589    1.22014   1.00
H2       0.50961    0.27985    1.25208   1.00
H2       0.47004    0.25294    1.26832   1.00
H2       0.49947    0.31252    1.18402   1.00
H2       0.46362    0.34875    1.18568   1.00
H2       0.49791    0.34549    1.22328   1.00
H2       0.32644    0.41348    1.18188   1.00
H2       0.27720    0.42742    1.18309   1.00
H2       0.29023    0.37951    1.19548   1.00
H2       0.28957    0.45391    1.11625   1.00
H2       0.33627    0.43380    1.11074   1.00
H2       0.29934    0.42386    1.07622   1.00
H2       0.32140    0.30390    1.01702   1.00
H2       0.34907    0.29568    1.05935   1.00
H2       0.30165    0.27570    1.05535   1.00
H2       0.24662    0.37144    1.05916   1.00
H2       0.26245    0.34679    1.01712   1.00
H2       0.24165    0.32004    1.05585   1.00
H2       0.29494    0.31189    1.20156   1.00
H2       0.27237    0.26726    1.18881   1.00
H2       0.32003    0.27716    1.17334   1.00
H2       0.21569    0.29401    1.15544   1.00
H2       0.22987    0.34093    1.17122   1.00
H2       0.21882    0.33220    1.12157   1.00
C4       0.41802    0.68584    0.91460   1.00
C4       0.41759    0.64412    0.91519   1.00
C3       0.44942    0.70864    0.92911   1.00
C3       0.44682    0.62116    0.93350   1.00
C3       0.38509    0.70623    0.89925   1.00
C3       0.38640    0.62386    0.89643   1.00
C2       0.41583    0.77012    0.91413   1.00
C2       0.41417    0.55988    0.91587   1.00
C3       0.44829    0.74962    0.92910   1.00
C3       0.44538    0.58019    0.93353   1.00
C3       0.38483    0.74758    0.89883   1.00
C3       0.38461    0.58262    0.89824   1.00
H1       0.47410    0.69615    0.93999   1.00
H1       0.46990    0.63352    0.94757   1.00
C5       0.35273    0.68520    0.88426   1.00
C5       0.35697    0.64480    0.87628   1.00
H1       0.47175    0.76455    0.94024   1.00
H1       0.46751    0.56510    0.94694   1.00
H1       0.36149    0.76180    0.88674   1.00
H1       0.36082    0.56868    0.88684   1.00
O3       0.31860    0.70461    0.87558   1.00
O3       0.33115    0.62599    0.85165   1.00
Si1      0.28400    0.70747    0.90822   1.00
Si1      0.34418    0.61779    0.80659   1.00
C6       0.25377    0.74038    0.88259   1.00
C6       0.26224    0.66098    0.91169   1.00
C6       0.29980    0.72753    0.95296   1.00
C6       0.39158    0.63193    0.79191   1.00
C6       0.33940    0.56698    0.80217   1.00
C6       0.30893    0.63977    0.77632   1.00
C6       0.27468    0.77694    0.86472   1.00
H2       0.24450    0.72291    0.85759   1.00
C6       0.21517    0.75647    0.90131   1.00
H2       0.26861    0.64858    0.88307   1.00
C6       0.27908    0.63134    0.94206   1.00
C6       0.21688    0.65836    0.91637   1.00
H2       0.31598    0.75331    0.94342   1.00
C6       0.26759    0.74272    0.98165   1.00
C6       0.32823    0.70349    0.97976   1.00
C6       0.40344    0.67571    0.79692   1.00
C6       0.42764    0.60725    0.80533   1.00
H2       0.39059    0.62712    0.76044   1.00
H2       0.36311    0.55551    0.82006   1.00
C6       0.30123    0.54878    0.81950   1.00
C6       0.34472    0.54893    0.76059   1.00
H2       0.28499    0.61875    0.77581   1.00
C6       0.29037    0.67836    0.79168   1.00
C6       0.31987    0.64744    0.73261   1.00
H2       0.29879    0.76846    0.84567   1.00
H2       0.28635    0.79590    0.88756   1.00
H2       0.25460    0.79417    0.84690   1.00
H2       0.19315    0.76108    0.87868   1.00
H2       0.20271    0.73678    0.92283   1.00
H2       0.21949    0.78464    0.91558   1.00
H2       0.26902    0.60172    0.93571   1.00
H2       0.31080    0.63032    0.94143   1.00
H2       0.26966    0.63852    0.97163   1.00
H2       0.20185    0.67362    0.89280   1.00
H2       0.20682    0.62808    0.91516   1.00
H2       0.20747    0.67050    0.94430   1.00
H2       0.24589    0.72014    0.98758   1.00
H2       0.27985    0.75208    1.00961   1.00
H2       0.25294    0.76832    0.97004   1.00
H2       0.31252    0.68402    0.99947   1.00
H2       0.34875    0.68568    0.96362   1.00
H2       0.34549    0.72328    0.99791   1.00
H2       0.41348    0.68188    0.82644   1.00
H2       0.42742    0.68309    0.77720   1.00
H2       0.37951    0.69548    0.79023   1.00
H2       0.45391    0.61625    0.78957   1.00
H2       0.43380    0.61074    0.83627   1.00
H2       0.42386    0.57622    0.79934   1.00
H2       0.30390    0.51702    0.82140   1.00
H2       0.29568    0.55935    0.84907   1.00
H2       0.27570    0.55535    0.80165   1.00
H2       0.37144    0.55916    0.74662   1.00
H2       0.34679    0.51712    0.76245   1.00
H2       0.32004    0.55585    0.74165   1.00
H2       0.31189    0.70156    0.79494   1.00
H2       0.26726    0.68881    0.77237   1.00
H2       0.27716    0.67334    0.82003   1.00
H2       0.29401    0.65544    0.71569   1.00
H2       0.34093    0.67122    0.72987   1.00
H2       0.33220    0.62157    0.71882   1.00
C4       0.14416    0.41460    0.91198   1.00
C4       0.18588    0.41519    0.91241   1.00
C3       0.12136    0.42911    0.88058   1.00
C3       0.20884    0.43350    0.88318   1.00
C3       0.12377    0.39925    0.94491   1.00
C3       0.20614    0.39643    0.94360   1.00
C2       0.05988    0.41413    0.91417   1.00
C2       0.27012    0.41587    0.91583   1.00
C3       0.08038    0.42910    0.88171   1.00
C3       0.24981    0.43353    0.88462   1.00
C3       0.08242    0.39883    0.94517   1.00
C3       0.24738    0.39824    0.94539   1.00
H1       0.13385    0.43999    0.85590   1.00
H1       0.19648    0.44757    0.86010   1.00
C5       0.14480    0.38426    0.97727   1.00
C5       0.18520    0.37628    0.97303   1.00
H1       0.06545    0.44024    0.85825   1.00
H1       0.26490    0.44694    0.86249   1.00
H1       0.06820    0.38674    0.96851   1.00
H1       0.26132    0.38684    0.96918   1.00
O3       0.12539    0.37558    1.01140   1.00
O3       0.20401    0.35165    0.99885   1.00
Si1      0.12253    0.40822    1.04600   1.00
Si1      0.21221    0.30659    0.98582   1.00
C6       0.08962    0.38259    1.07623   1.00
C6       0.16902    0.41169    1.06776   1.00
C6       0.10247    0.45296    1.03020   1.00
C6       0.19807    0.29191    0.93842   1.00
C6       0.26302    0.30217    0.99060   1.00
C6       0.19023    0.27632    1.02107   1.00
C6       0.05306    0.36472    1.05532   1.00
H2       0.10709    0.35759    1.08550   1.00
C6       0.07353    0.40131    1.11483   1.00
H2       0.18142    0.38307    1.06139   1.00
C6       0.19866    0.44206    1.05092   1.00
C6       0.17164    0.41637    1.11312   1.00
H2       0.07669    0.44342    1.01402   1.00
C6       0.08728    0.48165    1.06241   1.00
C6       0.12651    0.47976    1.00177   1.00
C6       0.15429    0.29692    0.92656   1.00
C6       0.22275    0.30533    0.90236   1.00
H2       0.20288    0.26044    0.93941   1.00
H2       0.27449    0.32006    0.96689   1.00
C6       0.28122    0.31950    1.02877   1.00
C6       0.28107    0.26059    0.98528   1.00
H2       0.21125    0.27581    1.04501   1.00
C6       0.15164    0.29168    1.03963   1.00
C6       0.18256    0.23261    1.01013   1.00
H2       0.06154    0.34567    1.03121   1.00
H2       0.03410    0.38756    1.04365   1.00
H2       0.03583    0.34690    1.07540   1.00
H2       0.06892    0.37868    1.13685   1.00
H2       0.09322    0.42283    1.12729   1.00
H2       0.04536    0.41558    1.11051   1.00
H2       0.22828    0.43571    1.06098   1.00
H2       0.19968    0.44143    1.01920   1.00
H2       0.19148    0.47163    1.06034   1.00
H2       0.15638    0.39280    1.12815   1.00
H2       0.20192    0.41516    1.12318   1.00
H2       0.15950    0.44430    1.12253   1.00
H2       0.10986    0.48758    1.08411   1.00
H2       0.07792    0.50961    1.05015   1.00
H2       0.06168    0.47004    1.07706   1.00
H2       0.14598    0.49947    1.01748   1.00
H2       0.14432    0.46362    0.98125   1.00
H2       0.10672    0.49791    0.98451   1.00
H2       0.14812    0.32644    0.91652   1.00
H2       0.14691    0.27720    0.90258   1.00
H2       0.13452    0.29023    0.95049   1.00
H2       0.21375    0.28957    0.87609   1.00
H2       0.21926    0.33627    0.89620   1.00
H2       0.25378    0.29934    0.90614   1.00
H2       0.31298    0.32140    1.02610   1.00
H2       0.27065    0.34907    1.03432   1.00
H2       0.27465    0.30165    1.05430   1.00
H2       0.27084    0.24662    0.95856   1.00
H2       0.31288    0.26245    0.98321   1.00
H2       0.27415    0.24165    1.00996   1.00
H2       0.12844    0.29494    1.01811   1.00
H2       0.14119    0.27237    1.06274   1.00
H2       0.15666    0.32003    1.05284   1.00
H2       0.17456    0.21569    1.03599   1.00
H2       0.15878    0.22987    0.98907   1.00
H2       0.20843    0.21882    0.99780   1.00
C4       0.68584    0.41460    0.91802   1.00
C4       0.64412    0.41519    0.91759   1.00
C3       0.70864    0.42911    0.94942   1.00
C3       0.62116    0.43350    0.94682   1.00
C3       0.70623    0.39925    0.88509   1.00
C3       0.62386    0.39643    0.88640   1.00
C2       0.77012    0.41413    0.91583   1.00
C2       0.55988    0.41587    0.91417   1.00
C3       0.74962    0.42910    0.94829   1.00
C3       0.58019    0.43353    0.94538   1.00
C3       0.74758    0.39883    0.88483   1.00
C3       0.58262    0.39824    0.88461   1.00
H1       0.69615    0.43999    0.97410   1.00
H1       0.63352    0.44757    0.96990   1.00
C5       0.68520    0.38426    0.85273   1.00
C5       0.64480    0.37628    0.85697   1.00
H1       0.76455    0.44024    0.97175   1.00
H1       0.56510    0.44694    0.96751   1.00
H1       0.76180    0.38674    0.86149   1.00
H1       0.56868    0.38684    0.86082   1.00
O3       0.70461    0.37558    0.81860   1.00
O3       0.62599    0.35165    0.83115   1.00
Si1      0.70747    0.40822    0.78400   1.00
Si1      0.61779    0.30659    0.84418   1.00
C6       0.74038    0.38259    0.75377   1.00
C6       0.66098    0.41169    0.76224   1.00
C6       0.72753    0.45296    0.79980   1.00
C6       0.63193    0.29191    0.89158   1.00
C6       0.56698    0.30217    0.83940   1.00
C6       0.63977    0.27632    0.80893   1.00
C6       0.77694    0.36472    0.77468   1.00
H2       0.72291    0.35759    0.74450   1.00
C6       0.75647    0.40131    0.71517   1.00
H2       0.64858    0.38307    0.76861   1.00
C6       0.63134    0.44206    0.77908   1.00
C6       0.65836    0.41637    0.71688   1.00
H2       0.75331    0.44342    0.81598   1.00
C6       0.74272    0.48165    0.76759   1.00
C6       0.70349    0.47976    0.82823   1.00
C6       0.67571    0.29692    0.90344   1.00
C6       0.60725    0.30533    0.92764   1.00
H2       0.62712    0.26044    0.89059   1.00
H2       0.55551    0.32006    0.86311   1.00
C6       0.54878    0.31950    0.80123   1.00
C6       0.54893    0.26059    0.84472   1.00
H2       0.61875    0.27581    0.78499   1.00
C6       0.67836    0.29168    0.79037   1.00
C6       0.64744    0.23261    0.81987   1.00
H2       0.76846    0.34567    0.79879   1.00
H2       0.79590    0.38756    0.78635   1.00
H2       0.79417    0.34690    0.75460   1.00
H2       0.76108    0.37868    0.69315   1.00
H2       0.73678    0.42283    0.70271   1.00
H2       0.78464    0.41558    0.71949   1.00
H2       0.60172    0.43571    0.76902   1.00
H2       0.63032    0.44143    0.81080   1.00
H2       0.63852    0.47163    0.76966   1.00
H2       0.67362    0.39280    0.70185   1.00
H2       0.62808    0.41516    0.70682   1.00
H2       0.67050    0.44430    0.70747   1.00
H2       0.72014    0.48758    0.74589   1.00
H2       0.75208    0.50961    0.77985   1.00
H2       0.76832    0.47004    0.75294   1.00
H2       0.68402    0.49947    0.81252   1.00
H2       0.68568    0.46362    0.84875   1.00
H2       0.72328    0.49791    0.84549   1.00
H2       0.68188    0.32644    0.91348   1.00
H2       0.68309    0.27720    0.92742   1.00
H2       0.69548    0.29023    0.87951   1.00
H2       0.61625    0.28957    0.95391   1.00
H2       0.61074    0.33627    0.93380   1.00
H2       0.57622    0.29934    0.92386   1.00
H2       0.51702    0.32140    0.80390   1.00
H2       0.55935    0.34907    0.79568   1.00
H2       0.55535    0.30165    0.77570   1.00
H2       0.55916    0.24662    0.87144   1.00
H2       0.51712    0.26245    0.84679   1.00
H2       0.55585    0.24165    0.82004   1.00
H2       0.70156    0.29494    0.81189   1.00
H2       0.68881    0.27237    0.76726   1.00
H2       0.67334    0.32003    0.77716   1.00
H2       0.65544    0.21569    0.79401   1.00
H2       0.67122    0.22987    0.84093   1.00
H2       0.62157    0.21882    0.83220   1.00
C4       0.41198    0.14416    0.91460   1.00
C4       0.41241    0.18588    0.91519   1.00
C3       0.38058    0.12136    0.92911   1.00
C3       0.38318    0.20884    0.93350   1.00
C3       0.44491    0.12377    0.89925   1.00
C3       0.44360    0.20614    0.89643   1.00
C2       0.41417    0.05988    0.91413   1.00
C2       0.41583    0.27012    0.91587   1.00
C3       0.38171    0.08038    0.92910   1.00
C3       0.38462    0.24981    0.93353   1.00
C3       0.44517    0.08242    0.89883   1.00
C3       0.44539    0.24738    0.89824   1.00
H1       0.35590    0.13385    0.93999   1.00
H1       0.36010    0.19648    0.94757   1.00
C5       0.47727    0.14480    0.88426   1.00
C5       0.47303    0.18520    0.87628   1.00
H1       0.35825    0.06545    0.94024   1.00
H1       0.36249    0.26490    0.94694   1.00
H1       0.46851    0.06820    0.88674   1.00
H1       0.46918    0.26132    0.88684   1.00
O3       0.51140    0.12539    0.87558   1.00
O3       0.49885    0.20401    0.85165   1.00
Si1      0.54600    0.12253    0.90822   1.00
Si1      0.48582    0.21221    0.80659   1.00
C6       0.57623    0.08962    0.88259   1.00
C6       0.56776    0.16902    0.91169   1.00
C6       0.53020    0.10247    0.95296   1.00
C6       0.43842    0.19807    0.79191   1.00
C6       0.49060    0.26302    0.80217   1.00
C6       0.52107    0.19023    0.77632   1.00
C6       0.55532    0.05306    0.86472   1.00
H2       0.58550    0.10709    0.85759   1.00
C6       0.61483    0.07353    0.90131   1.00
H2       0.56139    0.18142    0.88307   1.00
C6       0.55092    0.19866    0.94206   1.00
C6       0.61312    0.17164    0.91637   1.00
H2       0.51402    0.07669    0.94342   1.00
C6       0.56241    0.08728    0.98165   1.00
C6       0.50177    0.12651    0.97976   1.00
C6       0.42656    0.15429    0.79692   1.00
C6       0.40236    0.22275    0.80533   1.00
H2       0.43941    0.20288    0.76044   1.00
H2       0.46689    0.27449    0.82006   1.00
C6       0.52877    0.28122    0.81950   1.00
C6       0.48528    0.28107    0.76059   1.00
H2       0.54501    0.21125    0.77581   1.00
C6       0.53963    0.15164    0.79168   1.00
C6       0.51013    0.18256    0.73261   1.00
H2       0.53121    0.06154    0.84567   1.00
H2       0.54365    0.03410    0.88756   1.00
H2       0.57540    0.03583    0.84690   1.00
H2       0.63685    0.06892    0.87868   1.00
H2       0.62729    0.09322    0.92283   1.00
H2       0.61051    0.04536    0.91558   1.00
H2       0.56098    0.22828    0.93571   1.00
H2       0.51920    0.19968    0.94143   1.00
H2       0.56034    0.19148    0.97163   1.00
H2       0.62815    0.15638    0.89280   1.00
H2       0.62318    0.20192    0.91516   1.00
H2       0.62253    0.15950    0.94430   1.00
H2       0.58411    0.10986    0.98758   1.00
H2       0.55015    0.07792    1.00961   1.00
H2       0.57706    0.06168    0.97004   1.00
H2       0.51748    0.14598    0.99947   1.00
H2       0.48125    0.14432    0.96362   1.00
H2       0.48451    0.10672    0.99791   1.00
H2       0.41652    0.14812    0.82644   1.00
H2       0.40258    0.14691    0.77720   1.00
H2       0.45049    0.13452    0.79023   1.00
H2       0.37609    0.21375    0.78957   1.00
H2       0.39620    0.21926    0.83627   1.00
H2       0.40614    0.25378    0.79934   1.00
H2       0.52610    0.31298    0.82140   1.00
H2       0.53432    0.27065    0.84907   1.00
H2       0.55430    0.27465    0.80165   1.00
H2       0.45856    0.27084    0.74662   1.00
H2       0.48321    0.31288    0.76245   1.00
H2       0.50996    0.27415    0.74165   1.00
H2       0.51811    0.12844    0.79494   1.00
H2       0.56274    0.14119    0.77237   1.00
H2       0.55284    0.15666    0.82003   1.00
H2       0.53599    0.17456    0.71569   1.00
H2       0.48907    0.15878    0.72987   1.00
H2       0.49780    0.20843    0.71882   1.00
C4       0.41460    0.41198    0.64416   1.00
C4       0.41519    0.41241    0.68588   1.00
C3       0.42911    0.38058    0.62136   1.00
C3       0.43350    0.38318    0.70884   1.00
C3       0.39925    0.44491    0.62377   1.00
C3       0.39643    0.44360    0.70614   1.00
C2       0.41413    0.41417    0.55988   1.00
C2       0.41587    0.41583    0.77012   1.00
C3       0.42910    0.38171    0.58038   1.00
C3       0.43353    0.38462    0.74981   1.00
C3       0.39883    0.44517    0.58242   1.00
C3       0.39824    0.44539    0.74738   1.00
H1       0.43999    0.35590    0.63385   1.00
H1       0.44757    0.36010    0.69648   1.00
C5       0.38426    0.47727    0.64480   1.00
C5       0.37628    0.47303    0.68520   1.00
H1       0.44024    0.35825    0.56545   1.00
H1       0.44694    0.36249    0.76490   1.00
H1       0.38674    0.46851    0.56820   1.00
H1       0.38684    0.46918    0.76132   1.00
O3       0.37558    0.51140    0.62539   1.00
O3       0.35165    0.49885    0.70401   1.00
Si1      0.40822    0.54600    0.62253   1.00
Si1      0.30659    0.48582    0.71221   1.00
C6       0.38259    0.57623    0.58962   1.00
C6       0.41169    0.56776    0.66902   1.00
C6       0.45296    0.53020    0.60247   1.00
C6       0.29191    0.43842    0.69807   1.00
C6       0.30217    0.49060    0.76302   1.00
C6       0.27632    0.52107    0.69023   1.00
C6       0.36472    0.55532    0.55306   1.00
H2       0.35759    0.58550    0.60709   1.00
C6       0.40131    0.61483    0.57353   1.00
H2       0.38307    0.56139    0.68142   1.00
C6       0.44206    0.55092    0.69866   1.00
C6       0.41637    0.61312    0.67164   1.00
H2       0.44342    0.51402    0.57669   1.00
C6       0.48165    0.56241    0.58728   1.00
C6       0.47976    0.50177    0.62651   1.00
C6       0.29692    0.42656    0.65429   1.00
C6       0.30533    0.40236    0.72275   1.00
H2       0.26044    0.43941    0.70288   1.00
H2       0.32006    0.46689    0.77449   1.00
C6       0.31950    0.52877    0.78122   1.00
C6       0.26059    0.48528    0.78107   1.00
H2       0.27581    0.54501    0.71125   1.00
C6       0.29168    0.53963    0.65164   1.00
C6       0.23261    0.51013    0.68256   1.00
H2       0.34567    0.53121    0.56154   1.00
H2       0.38756    0.54365    0.53410   1.00
H2       0.34690    0.57540    0.53583   1.00
H2       0.37868    0.63685    0.56892   1.00
H2       0.42283    0.62729    0.59322   1.00
H2       0.41558    0.61051    0.54536   1.00
H2       0.43571    0.56098    0.72828   1.00
H2       0.44143    0.51920    0.69968   1.00
H2       0.47163    0.56034    0.69148   1.00
H2       0.39280    0.62815    0.65638   1.00
H2       0.41516    0.62318    0.70192   1.00
H2       0.44430    0.62253    0.65950   1.00
H2       0.48758    0.58411    0.60986   1.00
H2       0.50961    0.55015    0.57792   1.00
H2       0.47004    0.57706    0.56168   1.00
H2       0.49947    0.51748    0.64598   1.00
H2       0.46362    0.48125    0.64432   1.00
H2       0.49791    0.48451    0.60672   1.00
H2       0.32644    0.41652    0.64812   1.00
H2       0.27720    0.40258    0.64691   1.00
H2       0.29023    0.45049    0.63452   1.00
H2       0.28957    0.37609    0.71375   1.00
H2       0.33627    0.39620    0.71926   1.00
H2       0.29934    0.40614    0.75378   1.00
H2       0.32140    0.52610    0.81298   1.00
H2       0.34907    0.53432    0.77065   1.00
H2       0.30165    0.55430    0.77465   1.00
H2       0.24662    0.45856    0.77084   1.00
H2       0.26245    0.48321    0.81288   1.00
H2       0.24165    0.50996    0.77415   1.00
H2       0.29494    0.51811    0.62844   1.00
H2       0.27237    0.56274    0.64119   1.00
H2       0.32003    0.55284    0.65666   1.00
H2       0.21569    0.53599    0.67456   1.00
H2       0.22987    0.48907    0.65878   1.00
H2       0.21882    0.49780    0.70843   1.00
C4       0.41460    0.91802    0.68584   1.00
C4       0.41519    0.91759    0.64412   1.00
C3       0.42911    0.94942    0.70864   1.00
C3       0.43350    0.94682    0.62116   1.00
C3       0.39925    0.88509    0.70623   1.00
C3       0.39643    0.88640    0.62386   1.00
C2       0.41413    0.91583    0.77012   1.00
C2       0.41587    0.91417    0.55988   1.00
C3       0.42910    0.94829    0.74962   1.00
C3       0.43353    0.94538    0.58019   1.00
C3       0.39883    0.88483    0.74758   1.00
C3       0.39824    0.88461    0.58262   1.00
H1       0.43999    0.97410    0.69615   1.00
H1       0.44757    0.96990    0.63352   1.00
C5       0.38426    0.85273    0.68520   1.00
C5       0.37628    0.85697    0.64480   1.00
H1       0.44024    0.97175    0.76455   1.00
H1       0.44694    0.96751    0.56510   1.00
H1       0.38674    0.86149    0.76180   1.00
H1       0.38684    0.86082    0.56868   1.00
O3       0.37558    0.81860    0.70461   1.00
O3       0.35165    0.83115    0.62599   1.00
Si1      0.40822    0.78400    0.70747   1.00
Si1      0.30659    0.84418    0.61779   1.00
C6       0.38259    0.75377    0.74038   1.00
C6       0.41169    0.76224    0.66098   1.00
C6       0.45296    0.79980    0.72753   1.00
C6       0.29191    0.89158    0.63193   1.00
C6       0.30217    0.83940    0.56698   1.00
C6       0.27632    0.80893    0.63977   1.00
C6       0.36472    0.77468    0.77694   1.00
H2       0.35759    0.74450    0.72291   1.00
C6       0.40131    0.71517    0.75647   1.00
H2       0.38307    0.76861    0.64858   1.00
C6       0.44206    0.77908    0.63134   1.00
C6       0.41637    0.71688    0.65836   1.00
H2       0.44342    0.81598    0.75331   1.00
C6       0.48165    0.76759    0.74272   1.00
C6       0.47976    0.82823    0.70349   1.00
C6       0.29692    0.90344    0.67571   1.00
C6       0.30533    0.92764    0.60725   1.00
H2       0.26044    0.89059    0.62712   1.00
H2       0.32006    0.86311    0.55551   1.00
C6       0.31950    0.80123    0.54878   1.00
C6       0.26059    0.84472    0.54893   1.00
H2       0.27581    0.78499    0.61875   1.00
C6       0.29168    0.79037    0.67836   1.00
C6       0.23261    0.81987    0.64744   1.00
H2       0.34567    0.79879    0.76846   1.00
H2       0.38756    0.78635    0.79590   1.00
H2       0.34690    0.75460    0.79417   1.00
H2       0.37868    0.69315    0.76108   1.00
H2       0.42283    0.70271    0.73678   1.00
H2       0.41558    0.71949    0.78464   1.00
H2       0.43571    0.76902    0.60172   1.00
H2       0.44143    0.81080    0.63032   1.00
H2       0.47163    0.76966    0.63852   1.00
H2       0.39280    0.70185    0.67362   1.00
H2       0.41516    0.70682    0.62808   1.00
H2       0.44430    0.70747    0.67050   1.00
H2       0.48758    0.74589    0.72014   1.00
H2       0.50961    0.77985    0.75208   1.00
H2       0.47004    0.75294    0.76832   1.00
H2       0.49947    0.81252    0.68402   1.00
H2       0.46362    0.84875    0.68568   1.00
H2       0.49791    0.84549    0.72328   1.00
H2       0.32644    0.91348    0.68188   1.00
H2       0.27720    0.92742    0.68309   1.00
H2       0.29023    0.87951    0.69548   1.00
H2       0.28957    0.95391    0.61625   1.00
H2       0.33627    0.93380    0.61074   1.00
H2       0.29934    0.92386    0.57622   1.00
H2       0.32140    0.80390    0.51702   1.00
H2       0.34907    0.79568    0.55935   1.00
H2       0.30165    0.77570    0.55535   1.00
H2       0.24662    0.87144    0.55916   1.00
H2       0.26245    0.84679    0.51712   1.00
H2       0.24165    0.82004    0.55585   1.00
H2       0.29494    0.81189    0.70156   1.00
H2       0.27237    0.76726    0.68881   1.00
H2       0.32003    0.77716    0.67334   1.00
H2       0.21569    0.79401    0.65544   1.00
H2       0.22987    0.84093    0.67122   1.00
H2       0.21882    0.83220    0.62157   1.00
C4       0.41802    1.18584    0.41460   1.00
C4       0.41759    1.14412    0.41519   1.00
C3       0.44942    1.20864    0.42911   1.00
C3       0.44682    1.12116    0.43350   1.00
C3       0.38509    1.20623    0.39925   1.00
C3       0.38640    1.12386    0.39643   1.00
C2       0.41583    1.27012    0.41413   1.00
C2       0.41417    1.05988    0.41587   1.00
C3       0.44829    1.24962    0.42910   1.00
C3       0.44538    1.08019    0.43353   1.00
C3       0.38483    1.24758    0.39883   1.00
C3       0.38461    1.08262    0.39824   1.00
H1       0.47410    1.19615    0.43999   1.00
H1       0.46990    1.13352    0.44757   1.00
C5       0.35273    1.18520    0.38426   1.00
C5       0.35697    1.14480    0.37628   1.00
H1       0.47175    1.26455    0.44024   1.00
H1       0.46751    1.06510    0.44694   1.00
H1       0.36149    1.26180    0.38674   1.00
H1       0.36082    1.06868    0.38684   1.00
O3       0.31860    1.20461    0.37558   1.00
O3       0.33115    1.12599    0.35165   1.00
Si1      0.28400    1.20747    0.40822   1.00
Si1      0.34418    1.11779    0.30659   1.00
C6       0.25377    1.24038    0.38259   1.00
C6       0.26224    1.16098    0.41169   1.00
C6       0.29980    1.22753    0.45296   1.00
C6       0.39158    1.13193    0.29191   1.00
C6       0.33940    1.06698    0.30217   1.00
C6       0.30893    1.13977    0.27632   1.00
C6       0.27468    1.27694    0.36472   1.00
H2       0.24450    1.22291    0.35759   1.00
C6       0.21517    1.25647    0.40131   1.00
H2       0.26861    1.14858    0.38307   1.00
C6       0.27908    1.13134    0.44206   1.00
C6       0.21688    1.15836    0.41637   1.00
H2       0.31598    1.25331    0.44342   1.00
C6       0.26759    1.24272    0.48165   1.00
C6       0.32823    1.20349    0.47976   1.00
C6       0.40344    1.17571    0.29692   1.00
C6       0.42764    1.10725    0.30533   1.00
H2       0.39059    1.12712    0.26044   1.00
H2       0.36311    1.05551    0.32006   1.00
C6       0.30123    1.04878    0.31950   1.00
C6       0.34472    1.04893    0.26059   1.00
H2       0.28499    1.11875    0.27581   1.00
C6       0.29037    1.17836    0.29168   1.00
C6       0.31987    1.14744    0.23261   1.00
H2       0.29879    1.26846    0.34567   1.00
H2       0.28635    1.29590    0.38756   1.00
H2       0.25460    1.29417    0.34690   1.00
H2       0.19315    1.26108    0.37868   1.00
H2       0.20271    1.23678    0.42283   1.00
H2       0.21949    1.28464    0.41558   1.00
H2       0.26902    1.10172    0.43571   1.00
H2       0.31080    1.13032    0.44143   1.00
H2       0.26966    1.13852    0.47163   1.00
H2       0.20185    1.17362    0.39280   1.00
H2       0.20682    1.12808    0.41516   1.00
H2       0.20747    1.17050    0.44430   1.00
H2       0.24589    1.22014    0.48758   1.00
H2       0.27985    1.25208    0.50961   1.00
H2       0.25294    1.26832    0.47004   1.00
H2       0.31252    1.18402    0.49947   1.00
H2       0.34875    1.18568    0.46362   1.00
H2       0.34549    1.22328    0.49791   1.00
H2       0.41348    1.18188    0.32644   1.00
H2       0.42742    1.18309    0.27720   1.00
H2       0.37951    1.19548    0.29023   1.00
H2       0.45391    1.11625    0.28957   1.00
H2       0.43380    1.11074    0.33627   1.00
H2       0.42386    1.07622    0.29934   1.00
H2       0.30390    1.01702    0.32140   1.00
H2       0.29568    1.05935    0.34907   1.00
H2       0.27570    1.05535    0.30165   1.00
H2       0.37144    1.05916    0.24662   1.00
H2       0.34679    1.01712    0.26245   1.00
H2       0.32004    1.05585    0.24165   1.00
H2       0.31189    1.20156    0.29494   1.00
H2       0.26726    1.18881    0.27237   1.00
H2       0.27716    1.17334    0.32003   1.00
H2       0.29401    1.15544    0.21569   1.00
H2       0.34093    1.17122    0.22987   1.00
H2       0.33220    1.12157    0.21882   1.00
C4       0.14416    0.91460    0.41198   1.00
C4       0.18588    0.91519    0.41241   1.00
C3       0.12136    0.92911    0.38058   1.00
C3       0.20884    0.93350    0.38318   1.00
C3       0.12377    0.89925    0.44491   1.00
C3       0.20614    0.89643    0.44360   1.00
C2       0.05988    0.91413    0.41417   1.00
C2       0.27012    0.91587    0.41583   1.00
C3       0.08038    0.92910    0.38171   1.00
C3       0.24981    0.93353    0.38462   1.00
C3       0.08242    0.89883    0.44517   1.00
C3       0.24738    0.89824    0.44539   1.00
H1       0.13385    0.93999    0.35590   1.00
H1       0.19648    0.94757    0.36010   1.00
C5       0.14480    0.88426    0.47727   1.00
C5       0.18520    0.87628    0.47303   1.00
H1       0.06545    0.94024    0.35825   1.00
H1       0.26490    0.94694    0.36249   1.00
H1       0.06820    0.88674    0.46851   1.00
H1       0.26132    0.88684    0.46918   1.00
O3       0.12539    0.87558    0.51140   1.00
O3       0.20401    0.85165    0.49885   1.00
Si1      0.12253    0.90822    0.54600   1.00
Si1      0.21221    0.80659    0.48582   1.00
C6       0.08962    0.88259    0.57623   1.00
C6       0.16902    0.91169    0.56776   1.00
C6       0.10247    0.95296    0.53020   1.00
C6       0.19807    0.79191    0.43842   1.00
C6       0.26302    0.80217    0.49060   1.00
C6       0.19023    0.77632    0.52107   1.00
C6       0.05306    0.86472    0.55532   1.00
H2       0.10709    0.85759    0.58550   1.00
C6       0.07353    0.90131    0.61483   1.00
H2       0.18142    0.88307    0.56139   1.00
C6       0.19866    0.94206    0.55092   1.00
C6       0.17164    0.91637    0.61312   1.00
H2       0.07669    0.94342    0.51402   1.00
C6       0.08728    0.98165    0.56241   1.00
C6       0.12651    0.97976    0.50177   1.00
C6       0.15429    0.79692    0.42656   1.00
C6       0.22275    0.80533    0.40236   1.00
H2       0.20288    0.76044    0.43941   1.00
H2       0.27449    0.82006    0.46689   1.00
C6       0.28122    0.81950    0.52877   1.00
C6       0.28107    0.76059    0.48528   1.00
H2       0.21125    0.77581    0.54501   1.00
C6       0.15164    0.79168    0.53963   1.00
C6       0.18256    0.73261    0.51013   1.00
H2       0.06154    0.84567    0.53121   1.00
H2       0.03410    0.88756    0.54365   1.00
H2       0.03583    0.84690    0.57540   1.00
H2       0.06892    0.87868    0.63685   1.00
H2       0.09322    0.92283    0.62729   1.00
H2       0.04536    0.91558    0.61051   1.00
H2       0.22828    0.93571    0.56098   1.00
H2       0.19968    0.94143    0.51920   1.00
H2       0.19148    0.97163    0.56034   1.00
H2       0.15638    0.89280    0.62815   1.00
H2       0.20192    0.91516    0.62318   1.00
H2       0.15950    0.94430    0.62253   1.00
H2       0.10986    0.98758    0.58411   1.00
H2       0.07792    1.00961    0.55015   1.00
H2       0.06168    0.97004    0.57706   1.00
H2       0.14598    0.99947    0.51748   1.00
H2       0.14432    0.96362    0.48125   1.00
H2       0.10672    0.99791    0.48451   1.00
H2       0.14812    0.82644    0.41652   1.00
H2       0.14691    0.77720    0.40258   1.00
H2       0.13452    0.79023    0.45049   1.00
H2       0.21375    0.78957    0.37609   1.00
H2       0.21926    0.83627    0.39620   1.00
H2       0.25378    0.79934    0.40614   1.00
H2       0.31298    0.82140    0.52610   1.00
H2       0.27065    0.84907    0.53432   1.00
H2       0.27465    0.80165    0.55430   1.00
H2       0.27084    0.74662    0.45856   1.00
H2       0.31288    0.76245    0.48321   1.00
H2       0.27415    0.74165    0.50996   1.00
H2       0.12844    0.79494    0.51811   1.00
H2       0.14119    0.77237    0.56274   1.00
H2       0.15666    0.82003    0.55284   1.00
H2       0.17456    0.71569    0.53599   1.00
H2       0.15878    0.72987    0.48907   1.00
H2       0.20843    0.71882    0.49780   1.00
C4       0.68584    0.91460    0.41802   1.00
C4       0.64412    0.91519    0.41759   1.00
C3       0.70864    0.92911    0.44942   1.00
C3       0.62116    0.93350    0.44682   1.00
C3       0.70623    0.89925    0.38509   1.00
C3       0.62386    0.89643    0.38640   1.00
C2       0.77012    0.91413    0.41583   1.00
C2       0.55988    0.91587    0.41417   1.00
C3       0.74962    0.92910    0.44829   1.00
C3       0.58019    0.93353    0.44538   1.00
C3       0.74758    0.89883    0.38483   1.00
C3       0.58262    0.89824    0.38461   1.00
H1       0.69615    0.93999    0.47410   1.00
H1       0.63352    0.94757    0.46990   1.00
C5       0.68520    0.88426    0.35273   1.00
C5       0.64480    0.87628    0.35697   1.00
H1       0.76455    0.94024    0.47175   1.00
H1       0.56510    0.94694    0.46751   1.00
H1       0.76180    0.88674    0.36149   1.00
H1       0.56868    0.88684    0.36082   1.00
O3       0.70461    0.87558    0.31860   1.00
O3       0.62599    0.85165    0.33115   1.00
Si1      0.70747    0.90822    0.28400   1.00
Si1      0.61779    0.80659    0.34418   1.00
C6       0.74038    0.88259    0.25377   1.00
C6       0.66098    0.91169    0.26224   1.00
C6       0.72753    0.95296    0.29980   1.00
C6       0.63193    0.79191    0.39158   1.00
C6       0.56698    0.80217    0.33940   1.00
C6       0.63977    0.77632    0.30893   1.00
C6       0.77694    0.86472    0.27468   1.00
H2       0.72291    0.85759    0.24450   1.00
C6       0.75647    0.90131    0.21517   1.00
H2       0.64858    0.88307    0.26861   1.00
C6       0.63134    0.94206    0.27908   1.00
C6       0.65836    0.91637    0.21688   1.00
H2       0.75331    0.94342    0.31598   1.00
C6       0.74272    0.98165    0.26759   1.00
C6       0.70349    0.97976    0.32823   1.00
C6       0.67571    0.79692    0.40344   1.00
C6       0.60725    0.80533    0.42764   1.00
H2       0.62712    0.76044    0.39059   1.00
H2       0.55551    0.82006    0.36311   1.00
C6       0.54878    0.81950    0.30123   1.00
C6       0.54893    0.76059    0.34472   1.00
H2       0.61875    0.77581    0.28499   1.00
C6       0.67836    0.79168    0.29037   1.00
C6       0.64744    0.73261    0.31987   1.00
H2       0.76846    0.84567    0.29879   1.00
H2       0.79590    0.88756    0.28635   1.00
H2       0.79417    0.84690    0.25460   1.00
H2       0.76108    0.87868    0.19315   1.00
H2       0.73678    0.92283    0.20271   1.00
H2       0.78464    0.91558    0.21949   1.00
H2       0.60172    0.93571    0.26902   1.00
H2       0.63032    0.94143    0.31080   1.00
H2       0.63852    0.97163    0.26966   1.00
H2       0.67362    0.89280    0.20185   1.00
H2       0.62808    0.91516    0.20682   1.00
H2       0.67050    0.94430    0.20747   1.00
H2       0.72014    0.98758    0.24589   1.00
H2       0.75208    1.00961    0.27985   1.00
H2       0.76832    0.97004    0.25294   1.00
H2       0.68402    0.99947    0.31252   1.00
H2       0.68568    0.96362    0.34875   1.00
H2       0.72328    0.99791    0.34549   1.00
H2       0.68188    0.82644    0.41348   1.00
H2       0.68309    0.77720    0.42742   1.00
H2       0.69548    0.79023    0.37951   1.00
H2       0.61625    0.78957    0.45391   1.00
H2       0.61074    0.83627    0.43380   1.00
H2       0.57622    0.79934    0.42386   1.00
H2       0.51702    0.82140    0.30390   1.00
H2       0.55935    0.84907    0.29568   1.00
H2       0.55535    0.80165    0.27570   1.00
H2       0.55916    0.74662    0.37144   1.00
H2       0.51712    0.76245    0.34679   1.00
H2       0.55585    0.74165    0.32004   1.00
H2       0.70156    0.79494    0.31189   1.00
H2       0.68881    0.77237    0.26726   1.00
H2       0.67334    0.82003    0.27716   1.00
H2       0.65544    0.71569    0.29401   1.00
H2       0.67122    0.72987    0.34093   1.00
H2       0.62157    0.71882    0.33220   1.00
C4       0.41198    0.64416    0.41460   1.00
C4       0.41241    0.68588    0.41519   1.00
C3       0.38058    0.62136    0.42911   1.00
C3       0.38318    0.70884    0.43350   1.00
C3       0.44491    0.62377    0.39925   1.00
C3       0.44360    0.70614    0.39643   1.00
C2       0.41417    0.55988    0.41413   1.00
C2       0.41583    0.77012    0.41587   1.00
C3       0.38171    0.58038    0.42910   1.00
C3       0.38462    0.74981    0.43353   1.00
C3       0.44517    0.58242    0.39883   1.00
C3       0.44539    0.74738    0.39824   1.00
H1       0.35590    0.63385    0.43999   1.00
H1       0.36010    0.69648    0.44757   1.00
C5       0.47727    0.64480    0.38426   1.00
C5       0.47303    0.68520    0.37628   1.00
H1       0.35825    0.56545    0.44024   1.00
H1       0.36249    0.76490    0.44694   1.00
H1       0.46851    0.56820    0.38674   1.00
H1       0.46918    0.76132    0.38684   1.00
O3       0.51140    0.62539    0.37558   1.00
O3       0.49885    0.70401    0.35165   1.00
Si1      0.54600    0.62253    0.40822   1.00
Si1      0.48582    0.71221    0.30659   1.00
C6       0.57623    0.58962    0.38259   1.00
C6       0.56776    0.66902    0.41169   1.00
C6       0.53020    0.60247    0.45296   1.00
C6       0.43842    0.69807    0.29191   1.00
C6       0.49060    0.76302    0.30217   1.00
C6       0.52107    0.69023    0.27632   1.00
C6       0.55532    0.55306    0.36472   1.00
H2       0.58550    0.60709    0.35759   1.00
C6       0.61483    0.57353    0.40131   1.00
H2       0.56139    0.68142    0.38307   1.00
C6       0.55092    0.69866    0.44206   1.00
C6       0.61312    0.67164    0.41637   1.00
H2       0.51402    0.57669    0.44342   1.00
C6       0.56241    0.58728    0.48165   1.00
C6       0.50177    0.62651    0.47976   1.00
C6       0.42656    0.65429    0.29692   1.00
C6       0.40236    0.72275    0.30533   1.00
H2       0.43941    0.70288    0.26044   1.00
H2       0.46689    0.77449    0.32006   1.00
C6       0.52877    0.78122    0.31950   1.00
C6       0.48528    0.78107    0.26059   1.00
H2       0.54501    0.71125    0.27581   1.00
C6       0.53963    0.65164    0.29168   1.00
C6       0.51013    0.68256    0.23261   1.00
H2       0.53121    0.56154    0.34567   1.00
H2       0.54365    0.53410    0.38756   1.00
H2       0.57540    0.53583    0.34690   1.00
H2       0.63685    0.56892    0.37868   1.00
H2       0.62729    0.59322    0.42283   1.00
H2       0.61051    0.54536    0.41558   1.00
H2       0.56098    0.72828    0.43571   1.00
H2       0.51920    0.69968    0.44143   1.00
H2       0.56034    0.69148    0.47163   1.00
H2       0.62815    0.65638    0.39280   1.00
H2       0.62318    0.70192    0.41516   1.00
H2       0.62253    0.65950    0.44430   1.00
H2       0.58411    0.60986    0.48758   1.00
H2       0.55015    0.57792    0.50961   1.00
H2       0.57706    0.56168    0.47004   1.00
H2       0.51748    0.64598    0.49947   1.00
H2       0.48125    0.64432    0.46362   1.00
H2       0.48451    0.60672    0.49791   1.00
H2       0.41652    0.64812    0.32644   1.00
H2       0.40258    0.64691    0.27720   1.00
H2       0.45049    0.63452    0.29023   1.00
H2       0.37609    0.71375    0.28957   1.00
H2       0.39620    0.71926    0.33627   1.00
H2       0.40614    0.75378    0.29934   1.00
H2       0.52610    0.81298    0.32140   1.00
H2       0.53432    0.77065    0.34907   1.00
H2       0.55430    0.77465    0.30165   1.00
H2       0.45856    0.77084    0.24662   1.00
H2       0.48321    0.81288    0.26245   1.00
H2       0.50996    0.77415    0.24165   1.00
H2       0.51811    0.62844    0.29494   1.00
H2       0.56274    0.64119    0.27237   1.00
H2       0.55284    0.65666    0.32003   1.00
H2       0.53599    0.67456    0.21569   1.00
H2       0.48907    0.65878    0.22987   1.00
H2       0.49780    0.70843    0.21882   1.00
C4       0.41460    0.91198    0.14416   1.00
C4       0.41519    0.91241    0.18588   1.00
C3       0.42911    0.88058    0.12136   1.00
C3       0.43350    0.88318    0.20884   1.00
C3       0.39925    0.94491    0.12377   1.00
C3       0.39643    0.94360    0.20614   1.00
C2       0.41413    0.91417    0.05988   1.00
C2       0.41587    0.91583    0.27012   1.00
C3       0.42910    0.88171    0.08038   1.00
C3       0.43353    0.88462    0.24981   1.00
C3       0.39883    0.94517    0.08242   1.00
C3       0.39824    0.94539    0.24738   1.00
H1       0.43999    0.85590    0.13385   1.00
H1       0.44757    0.86010    0.19648   1.00
C5       0.38426    0.97727    0.14480   1.00
C5       0.37628    0.97303    0.18520   1.00
H1       0.44024    0.85825    0.06545   1.00
H1       0.44694    0.86249    0.26490   1.00
H1       0.38674    0.96851    0.06820   1.00
H1       0.38684    0.96918    0.26132   1.00
O3       0.37558    1.01140    0.12539   1.00
O3       0.35165    0.99885    0.20401   1.00
Si1      0.40822    1.04600    0.12253   1.00
Si1      0.30659    0.98582    0.21221   1.00
C6       0.38259    1.07623    0.08962   1.00
C6       0.41169    1.06776    0.16902   1.00
C6       0.45296    1.03020    0.10247   1.00
C6       0.29191    0.93842    0.19807   1.00
C6       0.30217    0.99060    0.26302   1.00
C6       0.27632    1.02107    0.19023   1.00
C6       0.36472    1.05532    0.05306   1.00
H2       0.35759    1.08550    0.10709   1.00
C6       0.40131    1.11483    0.07353   1.00
H2       0.38307    1.06139    0.18142   1.00
C6       0.44206    1.05092    0.19866   1.00
C6       0.41637    1.11312    0.17164   1.00
H2       0.44342    1.01402    0.07669   1.00
C6       0.48165    1.06241    0.08728   1.00
C6       0.47976    1.00177    0.12651   1.00
C6       0.29692    0.92656    0.15429   1.00
C6       0.30533    0.90236    0.22275   1.00
H2       0.26044    0.93941    0.20288   1.00
H2       0.32006    0.96689    0.27449   1.00
C6       0.31950    1.02877    0.28122   1.00
C6       0.26059    0.98528    0.28107   1.00
H2       0.27581    1.04501    0.21125   1.00
C6       0.29168    1.03963    0.15164   1.00
C6       0.23261    1.01013    0.18256   1.00
H2       0.34567    1.03121    0.06154   1.00
H2       0.38756    1.04365    0.03410   1.00
H2       0.34690    1.07540    0.03583   1.00
H2       0.37868    1.13685    0.06892   1.00
H2       0.42283    1.12729    0.09322   1.00
H2       0.41558    1.11051    0.04536   1.00
H2       0.43571    1.06098    0.22828   1.00
H2       0.44143    1.01920    0.19968   1.00
H2       0.47163    1.06034    0.19148   1.00
H2       0.39280    1.12815    0.15638   1.00
H2       0.41516    1.12318    0.20192   1.00
H2       0.44430    1.12253    0.15950   1.00
H2       0.48758    1.08411    0.10986   1.00
H2       0.50961    1.05015    0.07792   1.00
H2       0.47004    1.07706    0.06168   1.00
H2       0.49947    1.01748    0.14598   1.00
H2       0.46362    0.98125    0.14432   1.00
H2       0.49791    0.98451    0.10672   1.00
H2       0.32644    0.91652    0.14812   1.00
H2       0.27720    0.90258    0.14691   1.00
H2       0.29023    0.95049    0.13452   1.00
H2       0.28957    0.87609    0.21375   1.00
H2       0.33627    0.89620    0.21926   1.00
H2       0.29934    0.90614    0.25378   1.00
H2       0.32140    1.02610    0.31298   1.00
H2       0.34907    1.03432    0.27065   1.00
H2       0.30165    1.05430    0.27465   1.00
H2       0.24662    0.95856    0.27084   1.00
H2       0.26245    0.98321    0.31288   1.00
H2       0.24165    1.00996    0.27415   1.00
H2       0.29494    1.01811    0.12844   1.00
H2       0.27237    1.06274    0.14119   1.00
H2       0.32003    1.05284    0.15666   1.00
H2       0.21569    1.03599    0.17456   1.00
H2       0.22987    0.98907    0.15878   1.00
H2       0.21882    0.99780    0.20843   1.00
C4       0.91460    0.41802    0.68584   1.00
C4       0.91519    0.41759    0.64412   1.00
C3       0.92911    0.44942    0.70864   1.00
C3       0.93350    0.44682    0.62116   1.00
C3       0.89925    0.38509    0.70623   1.00
C3       0.89643    0.38640    0.62386   1.00
C2       0.91413    0.41583    0.77012   1.00
C2       0.91587    0.41417    0.55988   1.00
C3       0.92910    0.44829    0.74962   1.00
C3       0.93353    0.44538    0.58019   1.00
C3       0.89883    0.38483    0.74758   1.00
C3       0.89824    0.38461    0.58262   1.00
H1       0.93999    0.47410    0.69615   1.00
H1       0.94757    0.46990    0.63352   1.00
C5       0.88426    0.35273    0.68520   1.00
C5       0.87628    0.35697    0.64480   1.00
H1       0.94024    0.47175    0.76455   1.00
H1       0.94694    0.46751    0.56510   1.00
H1       0.88674    0.36149    0.76180   1.00
H1       0.88684    0.36082    0.56868   1.00
O3       0.87558    0.31860    0.70461   1.00
O3       0.85165    0.33115    0.62599   1.00
Si1      0.90822    0.28400    0.70747   1.00
Si1      0.80659    0.34418    0.61779   1.00
C6       0.88259    0.25377    0.74038   1.00
C6       0.91169    0.26224    0.66098   1.00
C6       0.95296    0.29980    0.72753   1.00
C6       0.79191    0.39158    0.63193   1.00
C6       0.80217    0.33940    0.56698   1.00
C6       0.77632    0.30893    0.63977   1.00
C6       0.86472    0.27468    0.77694   1.00
H2       0.85759    0.24450    0.72291   1.00
C6       0.90131    0.21517    0.75647   1.00
H2       0.88307    0.26861    0.64858   1.00
C6       0.94206    0.27908    0.63134   1.00
C6       0.91637    0.21688    0.65836   1.00
H2       0.94342    0.31598    0.75331   1.00
C6       0.98165    0.26759    0.74272   1.00
C6       0.97976    0.32823    0.70349   1.00
C6       0.79692    0.40344    0.67571   1.00
C6       0.80533    0.42764    0.60725   1.00
H2       0.76044    0.39059    0.62712   1.00
H2       0.82006    0.36311    0.55551   1.00
C6       0.81950    0.30123    0.54878   1.00
C6       0.76059    0.34472    0.54893   1.00
H2       0.77581    0.28499    0.61875   1.00
C6       0.79168    0.29037    0.67836   1.00
C6       0.73261    0.31987    0.64744   1.00
H2       0.84567    0.29879    0.76846   1.00
H2       0.88756    0.28635    0.79590   1.00
H2       0.84690    0.25460    0.79417   1.00
H2       0.87868    0.19315    0.76108   1.00
H2       0.92283    0.20271    0.73678   1.00
H2       0.91558    0.21949    0.78464   1.00
H2       0.93571    0.26902    0.60172   1.00
H2       0.94143    0.31080    0.63032   1.00
H2       0.97163    0.26966    0.63852   1.00
H2       0.89280    0.20185    0.67362   1.00
H2       0.91516    0.20682    0.62808   1.00
H2       0.94430    0.20747    0.67050   1.00
H2       0.98758    0.24589    0.72014   1.00
H2       1.00961    0.27985    0.75208   1.00
H2       0.97004    0.25294    0.76832   1.00
H2       0.99947    0.31252    0.68402   1.00
H2       0.96362    0.34875    0.68568   1.00
H2       0.99791    0.34549    0.72328   1.00
H2       0.82644    0.41348    0.68188   1.00
H2       0.77720    0.42742    0.68309   1.00
H2       0.79023    0.37951    0.69548   1.00
H2       0.78957    0.45391    0.61625   1.00
H2       0.83627    0.43380    0.61074   1.00
H2       0.79934    0.42386    0.57622   1.00
H2       0.82140    0.30390    0.51702   1.00
H2       0.84907    0.29568    0.55935   1.00
H2       0.80165    0.27570    0.55535   1.00
H2       0.74662    0.37144    0.55916   1.00
H2       0.76245    0.34679    0.51712   1.00
H2       0.74165    0.32004    0.55585   1.00
H2       0.79494    0.31189    0.70156   1.00
H2       0.77237    0.26726    0.68881   1.00
H2       0.82003    0.27716    0.67334   1.00
H2       0.71569    0.29401    0.65544   1.00
H2       0.72987    0.34093    0.67122   1.00
H2       0.71882    0.33220    0.62157   1.00
C4       0.91802    0.68584    0.41460   1.00
C4       0.91759    0.64412    0.41519   1.00
C3       0.94942    0.70864    0.42911   1.00
C3       0.94682    0.62116    0.43350   1.00
C3       0.88509    0.70623    0.39925   1.00
C3       0.88640    0.62386    0.39643   1.00
C2       0.91583    0.77012    0.41413   1.00
C2       0.91417    0.55988    0.41587   1.00
C3       0.94829    0.74962    0.42910   1.00
C3       0.94538    0.58019    0.43353   1.00
C3       0.88483    0.74758    0.39883   1.00
C3       0.88461    0.58262    0.39824   1.00
H1       0.97410    0.69615    0.43999   1.00
H1       0.96990    0.63352    0.44757   1.00
C5       0.85273    0.68520    0.38426   1.00
C5       0.85697    0.64480    0.37628   1.00
H1       0.97175    0.76455    0.44024   1.00
H1       0.96751    0.56510    0.44694   1.00
H1       0.86149    0.76180    0.38674   1.00
H1       0.86082    0.56868    0.38684   1.00
O3       0.81860    0.70461    0.37558   1.00
O3       0.83115    0.62599    0.35165   1.00
Si1      0.78400    0.70747    0.40822   1.00
Si1      0.84418    0.61779    0.30659   1.00
C6       0.75377    0.74038    0.38259   1.00
C6       0.76224    0.66098    0.41169   1.00
C6       0.79980    0.72753    0.45296   1.00
C6       0.89158    0.63193    0.29191   1.00
C6       0.83940    0.56698    0.30217   1.00
C6       0.80893    0.63977    0.27632   1.00
C6       0.77468    0.77694    0.36472   1.00
H2       0.74450    0.72291    0.35759   1.00
C6       0.71517    0.75647    0.40131   1.00
H2       0.76861    0.64858    0.38307   1.00
C6       0.77908    0.63134    0.44206   1.00
C6       0.71688    0.65836    0.41637   1.00
H2       0.81598    0.75331    0.44342   1.00
C6       0.76759    0.74272    0.48165   1.00
C6       0.82823    0.70349    0.47976   1.00
C6       0.90344    0.67571    0.29692   1.00
C6       0.92764    0.60725    0.30533   1.00
H2       0.89059    0.62712    0.26044   1.00
H2       0.86311    0.55551    0.32006   1.00
C6       0.80123    0.54878    0.31950   1.00
C6       0.84472    0.54893    0.26059   1.00
H2       0.78499    0.61875    0.27581   1.00
C6       0.79037    0.67836    0.29168   1.00
C6       0.81987    0.64744    0.23261   1.00
H2       0.79879    0.76846    0.34567   1.00
H2       0.78635    0.79590    0.38756   1.00
H2       0.75460    0.79417    0.34690   1.00
H2       0.69315    0.76108    0.37868   1.00
H2       0.70271    0.73678    0.42283   1.00
H2       0.71949    0.78464    0.41558   1.00
H2       0.76902    0.60172    0.43571   1.00
H2       0.81080    0.63032    0.44143   1.00
H2       0.76966    0.63852    0.47163   1.00
H2       0.70185    0.67362    0.39280   1.00
H2       0.70682    0.62808    0.41516   1.00
H2       0.70747    0.67050    0.44430   1.00
H2       0.74589    0.72014    0.48758   1.00
H2       0.77985    0.75208    0.50961   1.00
H2       0.75294    0.76832    0.47004   1.00
H2       0.81252    0.68402    0.49947   1.00
H2       0.84875    0.68568    0.46362   1.00
H2       0.84549    0.72328    0.49791   1.00
H2       0.91348    0.68188    0.32644   1.00
H2       0.92742    0.68309    0.27720   1.00
H2       0.87951    0.69548    0.29023   1.00
H2       0.95391    0.61625    0.28957   1.00
H2       0.93380    0.61074    0.33627   1.00
H2       0.92386    0.57622    0.29934   1.00
H2       0.80390    0.51702    0.32140   1.00
H2       0.79568    0.55935    0.34907   1.00
H2       0.77570    0.55535    0.30165   1.00
H2       0.87144    0.55916    0.24662   1.00
H2       0.84679    0.51712    0.26245   1.00
H2       0.82004    0.55585    0.24165   1.00
H2       0.81189    0.70156    0.29494   1.00
H2       0.76726    0.68881    0.27237   1.00
H2       0.77716    0.67334    0.32003   1.00
H2       0.79401    0.65544    0.21569   1.00
H2       0.84093    0.67122    0.22987   1.00
H2       0.83220    0.62157    0.21882   1.00
C4       0.64416    0.41460    0.41198   1.00
C4       0.68588    0.41519    0.41241   1.00
C3       0.62136    0.42911    0.38058   1.00
C3       0.70884    0.43350    0.38318   1.00
C3       0.62377    0.39925    0.44491   1.00
C3       0.70614    0.39643    0.44360   1.00
C2       0.55988    0.41413    0.41417   1.00
C2       0.77012    0.41587    0.41583   1.00
C3       0.58038    0.42910    0.38171   1.00
C3       0.74981    0.43353    0.38462   1.00
C3       0.58242    0.39883    0.44517   1.00
C3       0.74738    0.39824    0.44539   1.00
H1       0.63385    0.43999    0.35590   1.00
H1       0.69648    0.44757    0.36010   1.00
C5       0.64480    0.38426    0.47727   1.00
C5       0.68520    0.37628    0.47303   1.00
H1       0.56545    0.44024    0.35825   1.00
H1       0.76490    0.44694    0.36249   1.00
H1       0.56820    0.38674    0.46851   1.00
H1       0.76132    0.38684    0.46918   1.00
O3       0.62539    0.37558    0.51140   1.00
O3       0.70401    0.35165    0.49885   1.00
Si1      0.62253    0.40822    0.54600   1.00
Si1      0.71221    0.30659    0.48582   1.00
C6       0.58962    0.38259    0.57623   1.00
C6       0.66902    0.41169    0.56776   1.00
C6       0.60247    0.45296    0.53020   1.00
C6       0.69807    0.29191    0.43842   1.00
C6       0.76302    0.30217    0.49060   1.00
C6       0.69023    0.27632    0.52107   1.00
C6       0.55306    0.36472    0.55532   1.00
H2       0.60709    0.35759    0.58550   1.00
C6       0.57353    0.40131    0.61483   1.00
H2       0.68142    0.38307    0.56139   1.00
C6       0.69866    0.44206    0.55092   1.00
C6       0.67164    0.41637    0.61312   1.00
H2       0.57669    0.44342    0.51402   1.00
C6       0.58728    0.48165    0.56241   1.00
C6       0.62651    0.47976    0.50177   1.00
C6       0.65429    0.29692    0.42656   1.00
C6       0.72275    0.30533    0.40236   1.00
H2       0.70288    0.26044    0.43941   1.00
H2       0.77449    0.32006    0.46689   1.00
C6       0.78122    0.31950    0.52877   1.00
C6       0.78107    0.26059    0.48528   1.00
H2       0.71125    0.27581    0.54501   1.00
C6       0.65164    0.29168    0.53963   1.00
C6       0.68256    0.23261    0.51013   1.00
H2       0.56154    0.34567    0.53121   1.00
H2       0.53410    0.38756    0.54365   1.00
H2       0.53583    0.34690    0.57540   1.00
H2       0.56892    0.37868    0.63685   1.00
H2       0.59322    0.42283    0.62729   1.00
H2       0.54536    0.41558    0.61051   1.00
H2       0.72828    0.43571    0.56098   1.00
H2       0.69968    0.44143    0.51920   1.00
H2       0.69148    0.47163    0.56034   1.00
H2       0.65638    0.39280    0.62815   1.00
H2       0.70192    0.41516    0.62318   1.00
H2       0.65950    0.44430    0.62253   1.00
H2       0.60986    0.48758    0.58411   1.00
H2       0.57792    0.50961    0.55015   1.00
H2       0.56168    0.47004    0.57706   1.00
H2       0.64598    0.49947    0.51748   1.00
H2       0.64432    0.46362    0.48125   1.00
H2       0.60672    0.49791    0.48451   1.00
H2       0.64812    0.32644    0.41652   1.00
H2       0.64691    0.27720    0.40258   1.00
H2       0.63452    0.29023    0.45049   1.00
H2       0.71375    0.28957    0.37609   1.00
H2       0.71926    0.33627    0.39620   1.00
H2       0.75378    0.29934    0.40614   1.00
H2       0.81298    0.32140    0.52610   1.00
H2       0.77065    0.34907    0.53432   1.00
H2       0.77465    0.30165    0.55430   1.00
H2       0.77084    0.24662    0.45856   1.00
H2       0.81288    0.26245    0.48321   1.00
H2       0.77415    0.24165    0.50996   1.00
H2       0.62844    0.29494    0.51811   1.00
H2       0.64119    0.27237    0.56274   1.00
H2       0.65666    0.32003    0.55284   1.00
H2       0.67456    0.21569    0.53599   1.00
H2       0.65878    0.22987    0.48907   1.00
H2       0.70843    0.21882    0.49780   1.00
C4       1.18584    0.41460    0.41802   1.00
C4       1.14412    0.41519    0.41759   1.00
C3       1.20864    0.42911    0.44942   1.00
C3       1.12116    0.43350    0.44682   1.00
C3       1.20623    0.39925    0.38509   1.00
C3       1.12386    0.39643    0.38640   1.00
C2       1.27012    0.41413    0.41583   1.00
C2       1.05988    0.41587    0.41417   1.00
C3       1.24962    0.42910    0.44829   1.00
C3       1.08019    0.43353    0.44538   1.00
C3       1.24758    0.39883    0.38483   1.00
C3       1.08262    0.39824    0.38461   1.00
H1       1.19615    0.43999    0.47410   1.00
H1       1.13352    0.44757    0.46990   1.00
C5       1.18520    0.38426    0.35273   1.00
C5       1.14480    0.37628    0.35697   1.00
H1       1.26455    0.44024    0.47175   1.00
H1       1.06510    0.44694    0.46751   1.00
H1       1.26180    0.38674    0.36149   1.00
H1       1.06868    0.38684    0.36082   1.00
O3       1.20461    0.37558    0.31860   1.00
O3       1.12599    0.35165    0.33115   1.00
Si1      1.20747    0.40822    0.28400   1.00
Si1      1.11779    0.30659    0.34418   1.00
C6       1.24038    0.38259    0.25377   1.00
C6       1.16098    0.41169    0.26224   1.00
C6       1.22753    0.45296    0.29980   1.00
C6       1.13193    0.29191    0.39158   1.00
C6       1.06698    0.30217    0.33940   1.00
C6       1.13977    0.27632    0.30893   1.00
C6       1.27694    0.36472    0.27468   1.00
H2       1.22291    0.35759    0.24450   1.00
C6       1.25647    0.40131    0.21517   1.00
H2       1.14858    0.38307    0.26861   1.00
C6       1.13134    0.44206    0.27908   1.00
C6       1.15836    0.41637    0.21688   1.00
H2       1.25331    0.44342    0.31598   1.00
C6       1.24272    0.48165    0.26759   1.00
C6       1.20349    0.47976    0.32823   1.00
C6       1.17571    0.29692    0.40344   1.00
C6       1.10725    0.30533    0.42764   1.00
H2       1.12712    0.26044    0.39059   1.00
H2       1.05551    0.32006    0.36311   1.00
C6       1.04878    0.31950    0.30123   1.00
C6       1.04893    0.26059    0.34472   1.00
H2       1.11875    0.27581    0.28499   1.00
C6       1.17836    0.29168    0.29037   1.00
C6       1.14744    0.23261    0.31987   1.00
H2       1.26846    0.34567    0.29879   1.00
H2       1.29590    0.38756    0.28635   1.00
H2       1.29417    0.34690    0.25460   1.00
H2       1.26108    0.37868    0.19315   1.00
H2       1.23678    0.42283    0.20271   1.00
H2       1.28464    0.41558    0.21949   1.00
H2       1.10172    0.43571    0.26902   1.00
H2       1.13032    0.44143    0.31080   1.00
H2       1.13852    0.47163    0.26966   1.00
H2       1.17362    0.39280    0.20185   1.00
H2       1.12808    0.41516    0.20682   1.00
H2       1.17050    0.44430    0.20747   1.00
H2       1.22014    0.48758    0.24589   1.00
H2       1.25208    0.50961    0.27985   1.00
H2       1.26832    0.47004    0.25294   1.00
H2       1.18402    0.49947    0.31252   1.00
H2       1.18568    0.46362    0.34875   1.00
H2       1.22328    0.49791    0.34549   1.00
H2       1.18188    0.32644    0.41348   1.00
H2       1.18309    0.27720    0.42742   1.00
H2       1.19548    0.29023    0.37951   1.00
H2       1.11625    0.28957    0.45391   1.00
H2       1.11074    0.33627    0.43380   1.00
H2       1.07622    0.29934    0.42386   1.00
H2       1.01702    0.32140    0.30390   1.00
H2       1.05935    0.34907    0.29568   1.00
H2       1.05535    0.30165    0.27570   1.00
H2       1.05916    0.24662    0.37144   1.00
H2       1.01712    0.26245    0.34679   1.00
H2       1.05585    0.24165    0.32004   1.00
H2       1.20156    0.29494    0.31189   1.00
H2       1.18881    0.27237    0.26726   1.00
H2       1.17334    0.32003    0.27716   1.00
H2       1.15544    0.21569    0.29401   1.00
H2       1.17122    0.22987    0.34093   1.00
H2       1.12157    0.21882    0.33220   1.00
C4       0.91198    0.14416    0.41460   1.00
C4       0.91241    0.18588    0.41519   1.00
C3       0.88058    0.12136    0.42911   1.00
C3       0.88318    0.20884    0.43350   1.00
C3       0.94491    0.12377    0.39925   1.00
C3       0.94360    0.20614    0.39643   1.00
C2       0.91417    0.05988    0.41413   1.00
C2       0.91583    0.27012    0.41587   1.00
C3       0.88171    0.08038    0.42910   1.00
C3       0.88462    0.24981    0.43353   1.00
C3       0.94517    0.08242    0.39883   1.00
C3       0.94539    0.24738    0.39824   1.00
H1       0.85590    0.13385    0.43999   1.00
H1       0.86010    0.19648    0.44757   1.00
C5       0.97727    0.14480    0.38426   1.00
C5       0.97303    0.18520    0.37628   1.00
H1       0.85825    0.06545    0.44024   1.00
H1       0.86249    0.26490    0.44694   1.00
H1       0.96851    0.06820    0.38674   1.00
H1       0.96918    0.26132    0.38684   1.00
O3       1.01140    0.12539    0.37558   1.00
O3       0.99885    0.20401    0.35165   1.00
Si1      1.04600    0.12253    0.40822   1.00
Si1      0.98582    0.21221    0.30659   1.00
C6       1.07623    0.08962    0.38259   1.00
C6       1.06776    0.16902    0.41169   1.00
C6       1.03020    0.10247    0.45296   1.00
C6       0.93842    0.19807    0.29191   1.00
C6       0.99060    0.26302    0.30217   1.00
C6       1.02107    0.19023    0.27632   1.00
C6       1.05532    0.05306    0.36472   1.00
H2       1.08550    0.10709    0.35759   1.00
C6       1.11483    0.07353    0.40131   1.00
H2       1.06139    0.18142    0.38307   1.00
C6       1.05092    0.19866    0.44206   1.00
C6       1.11312    0.17164    0.41637   1.00
H2       1.01402    0.07669    0.44342   1.00
C6       1.06241    0.08728    0.48165   1.00
C6       1.00177    0.12651    0.47976   1.00
C6       0.92656    0.15429    0.29692   1.00
C6       0.90236    0.22275    0.30533   1.00
H2       0.93941    0.20288    0.26044   1.00
H2       0.96689    0.27449    0.32006   1.00
C6       1.02877    0.28122    0.31950   1.00
C6       0.98528    0.28107    0.26059   1.00
H2       1.04501    0.21125    0.27581   1.00
C6       1.03963    0.15164    0.29168   1.00
C6       1.01013    0.18256    0.23261   1.00
H2       1.03121    0.06154    0.34567   1.00
H2       1.04365    0.03410    0.38756   1.00
H2       1.07540    0.03583    0.34690   1.00
H2       1.13685    0.06892    0.37868   1.00
H2       1.12729    0.09322    0.42283   1.00
H2       1.11051    0.04536    0.41558   1.00
H2       1.06098    0.22828    0.43571   1.00
H2       1.01920    0.19968    0.44143   1.00
H2       1.06034    0.19148    0.47163   1.00
H2       1.12815    0.15638    0.39280   1.00
H2       1.12318    0.20192    0.41516   1.00
H2       1.12253    0.15950    0.44430   1.00
H2       1.08411    0.10986    0.48758   1.00
H2       1.05015    0.07792    0.50961   1.00
H2       1.07706    0.06168    0.47004   1.00
H2       1.01748    0.14598    0.49947   1.00
H2       0.98125    0.14432    0.46362   1.00
H2       0.98451    0.10672    0.49791   1.00
H2       0.91652    0.14812    0.32644   1.00
H2       0.90258    0.14691    0.27720   1.00
H2       0.95049    0.13452    0.29023   1.00
H2       0.87609    0.21375    0.28957   1.00
H2       0.89620    0.21926    0.33627   1.00
H2       0.90614    0.25378    0.29934   1.00
H2       1.02610    0.31298    0.32140   1.00
H2       1.03432    0.27065    0.34907   1.00
H2       1.05430    0.27465    0.30165   1.00
H2       0.95856    0.27084    0.24662   1.00
H2       0.98321    0.31288    0.26245   1.00
H2       1.00996    0.27415    0.24165   1.00
H2       1.01811    0.12844    0.29494   1.00
H2       1.06274    0.14119    0.27237   1.00
H2       1.05284    0.15666    0.32003   1.00
H2       1.03599    0.17456    0.21569   1.00
H2       0.98907    0.15878    0.22987   1.00
H2       0.99780    0.20843    0.21882   1.00
C4       0.91460    0.41198    0.14416   1.00
C4       0.91519    0.41241    0.18588   1.00
C3       0.92911    0.38058    0.12136   1.00
C3       0.93350    0.38318    0.20884   1.00
C3       0.89925    0.44491    0.12377   1.00
C3       0.89643    0.44360    0.20614   1.00
C2       0.91413    0.41417    0.05988   1.00
C2       0.91587    0.41583    0.27012   1.00
C3       0.92910    0.38171    0.08038   1.00
C3       0.93353    0.38462    0.24981   1.00
C3       0.89883    0.44517    0.08242   1.00
C3       0.89824    0.44539    0.24738   1.00
H1       0.93999    0.35590    0.13385   1.00
H1       0.94757    0.36010    0.19648   1.00
C5       0.88426    0.47727    0.14480   1.00
C5       0.87628    0.47303    0.18520   1.00
H1       0.94024    0.35825    0.06545   1.00
H1       0.94694    0.36249    0.26490   1.00
H1       0.88674    0.46851    0.06820   1.00
H1       0.88684    0.46918    0.26132   1.00
O3       0.87558    0.51140    0.12539   1.00
O3       0.85165    0.49885    0.20401   1.00
Si1      0.90822    0.54600    0.12253   1.00
Si1      0.80659    0.48582    0.21221   1.00
C6       0.88259    0.57623    0.08962   1.00
C6       0.91169    0.56776    0.16902   1.00
C6       0.95296    0.53020    0.10247   1.00
C6       0.79191    0.43842    0.19807   1.00
C6       0.80217    0.49060    0.26302   1.00
C6       0.77632    0.52107    0.19023   1.00
C6       0.86472    0.55532    0.05306   1.00
H2       0.85759    0.58550    0.10709   1.00
C6       0.90131    0.61483    0.07353   1.00
H2       0.88307    0.56139    0.18142   1.00
C6       0.94206    0.55092    0.19866   1.00
C6       0.91637    0.61312    0.17164   1.00
H2       0.94342    0.51402    0.07669   1.00
C6       0.98165    0.56241    0.08728   1.00
C6       0.97976    0.50177    0.12651   1.00
C6       0.79692    0.42656    0.15429   1.00
C6       0.80533    0.40236    0.22275   1.00
H2       0.76044    0.43941    0.20288   1.00
H2       0.82006    0.46689    0.27449   1.00
C6       0.81950    0.52877    0.28122   1.00
C6       0.76059    0.48528    0.28107   1.00
H2       0.77581    0.54501    0.21125   1.00
C6       0.79168    0.53963    0.15164   1.00
C6       0.73261    0.51013    0.18256   1.00
H2       0.84567    0.53121    0.06154   1.00
H2       0.88756    0.54365    0.03410   1.00
H2       0.84690    0.57540    0.03583   1.00
H2       0.87868    0.63685    0.06892   1.00
H2       0.92283    0.62729    0.09322   1.00
H2       0.91558    0.61051    0.04536   1.00
H2       0.93571    0.56098    0.22828   1.00
H2       0.94143    0.51920    0.19968   1.00
H2       0.97163    0.56034    0.19148   1.00
H2       0.89280    0.62815    0.15638   1.00
H2       0.91516    0.62318    0.20192   1.00
H2       0.94430    0.62253    0.15950   1.00
H2       0.98758    0.58411    0.10986   1.00
H2       1.00961    0.55015    0.07792   1.00
H2       0.97004    0.57706    0.06168   1.00
H2       0.99947    0.51748    0.14598   1.00
H2       0.96362    0.48125    0.14432   1.00
H2       0.99791    0.48451    0.10672   1.00
H2       0.82644    0.41652    0.14812   1.00
H2       0.77720    0.40258    0.14691   1.00
H2       0.79023    0.45049    0.13452   1.00
H2       0.78957    0.37609    0.21375   1.00
H2       0.83627    0.39620    0.21926   1.00
H2       0.79934    0.40614    0.25378   1.00
H2       0.82140    0.52610    0.31298   1.00
H2       0.84907    0.53432    0.27065   1.00
H2       0.80165    0.55430    0.27465   1.00
H2       0.74662    0.45856    0.27084   1.00
H2       0.76245    0.48321    0.31288   1.00
H2       0.74165    0.50996    0.27415   1.00
H2       0.79494    0.51811    0.12844   1.00
H2       0.77237    0.56274    0.14119   1.00
H2       0.82003    0.55284    0.15666   1.00
H2       0.71569    0.53599    0.17456   1.00
H2       0.72987    0.48907    0.15878   1.00
H2       0.71882    0.49780    0.20843   1.00
