data_IRMOF10_SG202_interpen_Ligand8cp_label_f.

_audit_creation_method             'generated by an auxiliary program of Tobunporous'

_symmetry_space_group_name_H-M     'P 1'
_symmetry_Int_Tables_number        1
_symmetry_cell_setting             triclinic

_cell_length_a                    34.2800
_cell_length_b                    34.2800
_cell_length_c                    34.2800
_cell_angle_alpha                 90.0000
_cell_angle_beta                  90.0000
_cell_angle_gamma                 90.0000

loop_
_atom_site_label
_atom_site_fract_x
_atom_site_fract_y
_atom_site_fract_z
_atom_site_occupancy
O1       0.75000    0.75000    0.75000   1.00
Zn1      0.71720    0.78280    0.78280   1.00
Zn1      0.78280    0.71720    0.78280   1.00
Zn1      0.78280    0.78280    0.71720   1.00
Zn1      0.71720    0.71720    0.71720   1.00
O2       0.72650    0.77350    0.83820   1.00
O2       0.72650    0.83820    0.77350   1.00
O2       0.66180    0.77350    0.77350   1.00
O2       0.77350    0.72650    0.83820   1.00
O2       0.83820    0.72650    0.77350   1.00
O2       0.77350    0.66180    0.77350   1.00
O2       0.77350    0.83820    0.72650   1.00
O2       0.83820    0.77350    0.72650   1.00
O2       0.77350    0.77350    0.66180   1.00
O2       0.66180    0.72650    0.72650   1.00
O2       0.72650    0.66180    0.72650   1.00
O2       0.72650    0.72650    0.66180   1.00
C1       0.75000    0.75000    0.85520   1.00
C1       0.75000    0.85520    0.75000   1.00
C1       0.64480    0.75000    0.75000   1.00
C1       0.85520    0.75000    0.75000   1.00
C1       0.75000    0.64480    0.75000   1.00
C1       0.75000    0.75000    0.64480   1.00
O1       0.25000    0.25000    0.75000   1.00
Zn1      0.21720    0.28280    0.78280   1.00
Zn1      0.28280    0.21720    0.78280   1.00
Zn1      0.28280    0.28280    0.71720   1.00
Zn1      0.21720    0.21720    0.71720   1.00
O2       0.22650    0.27350    0.83820   1.00
O2       0.22650    0.33820    0.77350   1.00
O2       0.16180    0.27350    0.77350   1.00
O2       0.27350    0.22650    0.83820   1.00
O2       0.33820    0.22650    0.77350   1.00
O2       0.27350    0.16180    0.77350   1.00
O2       0.27350    0.33820    0.72650   1.00
O2       0.33820    0.27350    0.72650   1.00
O2       0.27350    0.27350    0.66180   1.00
O2       0.16180    0.22650    0.72650   1.00
O2       0.22650    0.16180    0.72650   1.00
O2       0.22650    0.22650    0.66180   1.00
C1       0.25000    0.25000    0.85520   1.00
C1       0.25000    0.35520    0.75000   1.00
C1       0.14480    0.25000    0.75000   1.00
C1       0.35520    0.25000    0.75000   1.00
C1       0.25000    0.14480    0.75000   1.00
C1       0.25000    0.25000    0.64480   1.00
O1       0.25000    0.75000    0.25000   1.00
Zn1      0.21720    0.78280    0.28280   1.00
Zn1      0.28280    0.71720    0.28280   1.00
Zn1      0.28280    0.78280    0.21720   1.00
Zn1      0.21720    0.71720    0.21720   1.00
O2       0.22650    0.77350    0.33820   1.00
O2       0.22650    0.83820    0.27350   1.00
O2       0.16180    0.77350    0.27350   1.00
O2       0.27350    0.72650    0.33820   1.00
O2       0.33820    0.72650    0.27350   1.00
O2       0.27350    0.66180    0.27350   1.00
O2       0.27350    0.83820    0.22650   1.00
O2       0.33820    0.77350    0.22650   1.00
O2       0.27350    0.77350    0.16180   1.00
O2       0.16180    0.72650    0.22650   1.00
O2       0.22650    0.66180    0.22650   1.00
O2       0.22650    0.72650    0.16180   1.00
C1       0.25000    0.75000    0.35520   1.00
C1       0.25000    0.85520    0.25000   1.00
C1       0.14480    0.75000    0.25000   1.00
C1       0.35520    0.75000    0.25000   1.00
C1       0.25000    0.64480    0.25000   1.00
C1       0.25000    0.75000    0.14480   1.00
O1       0.75000    0.25000    0.25000   1.00
Zn1      0.71720    0.28280    0.28280   1.00
Zn1      0.78280    0.21720    0.28280   1.00
Zn1      0.78280    0.28280    0.21720   1.00
Zn1      0.71720    0.21720    0.21720   1.00
O2       0.72650    0.27350    0.33820   1.00
O2       0.72650    0.33820    0.27350   1.00
O2       0.66180    0.27350    0.27350   1.00
O2       0.77350    0.22650    0.33820   1.00
O2       0.83820    0.22650    0.27350   1.00
O2       0.77350    0.16180    0.27350   1.00
O2       0.77350    0.33820    0.22650   1.00
O2       0.83820    0.27350    0.22650   1.00
O2       0.77350    0.27350    0.16180   1.00
O2       0.66180    0.22650    0.22650   1.00
O2       0.72650    0.16180    0.22650   1.00
O2       0.72650    0.22650    0.16180   1.00
C1       0.75000    0.25000    0.35520   1.00
C1       0.75000    0.35520    0.25000   1.00
C1       0.64480    0.25000    0.25000   1.00
C1       0.85520    0.25000    0.25000   1.00
C1       0.75000    0.14480    0.25000   1.00
C1       0.75000    0.25000    0.14480   1.00
O1       0.25000    0.25000    0.25000   1.00
Zn1      0.28280    0.21720    0.21720   1.00
Zn1      0.21720    0.28280    0.21720   1.00
Zn1      0.21720    0.21720    0.28280   1.00
Zn1      0.28280    0.28280    0.28280   1.00
O2       0.27350    0.22650    0.16180   1.00
O2       0.27350    0.16180    0.22650   1.00
O2       0.33820    0.22650    0.22650   1.00
O2       0.22650    0.27350    0.16180   1.00
O2       0.16180    0.27350    0.22650   1.00
O2       0.22650    0.33820    0.22650   1.00
O2       0.22650    0.16180    0.27350   1.00
O2       0.16180    0.22650    0.27350   1.00
O2       0.22650    0.22650    0.33820   1.00
O2       0.33820    0.27350    0.27350   1.00
O2       0.27350    0.33820    0.27350   1.00
O2       0.27350    0.27350    0.33820   1.00
C1       0.25000    0.25000    0.14480   1.00
C1       0.25000    0.14480    0.25000   1.00
C1       0.35520    0.25000    0.25000   1.00
C1       0.14480    0.25000    0.25000   1.00
C1       0.25000    0.35520    0.25000   1.00
C1       0.25000    0.25000    0.35520   1.00
O1       0.75000    0.75000    0.25000   1.00
Zn1      0.78280    0.71720    0.21720   1.00
Zn1      0.71720    0.78280    0.21720   1.00
Zn1      0.71720    0.71720    0.28280   1.00
Zn1      0.78280    0.78280    0.28280   1.00
O2       0.77350    0.72650    0.16180   1.00
O2       0.77350    0.66180    0.22650   1.00
O2       0.83820    0.72650    0.22650   1.00
O2       0.72650    0.77350    0.16180   1.00
O2       0.66180    0.77350    0.22650   1.00
O2       0.72650    0.83820    0.22650   1.00
O2       0.72650    0.66180    0.27350   1.00
O2       0.66180    0.72650    0.27350   1.00
O2       0.72650    0.72650    0.33820   1.00
O2       0.83820    0.77350    0.27350   1.00
O2       0.77350    0.83820    0.27350   1.00
O2       0.77350    0.77350    0.33820   1.00
C1       0.75000    0.75000    0.14480   1.00
C1       0.75000    0.64480    0.25000   1.00
C1       0.85520    0.75000    0.25000   1.00
C1       0.64480    0.75000    0.25000   1.00
C1       0.75000    0.85520    0.25000   1.00
C1       0.75000    0.75000    0.35520   1.00
O1       0.75000    0.25000    0.75000   1.00
Zn1      0.78280    0.21720    0.71720   1.00
Zn1      0.71720    0.28280    0.71720   1.00
Zn1      0.71720    0.21720    0.78280   1.00
Zn1      0.78280    0.28280    0.78280   1.00
O2       0.77350    0.22650    0.66180   1.00
O2       0.77350    0.16180    0.72650   1.00
O2       0.83820    0.22650    0.72650   1.00
O2       0.72650    0.27350    0.66180   1.00
O2       0.66180    0.27350    0.72650   1.00
O2       0.72650    0.33820    0.72650   1.00
O2       0.72650    0.16180    0.77350   1.00
O2       0.66180    0.22650    0.77350   1.00
O2       0.72650    0.22650    0.83820   1.00
O2       0.83820    0.27350    0.77350   1.00
O2       0.77350    0.33820    0.77350   1.00
O2       0.77350    0.27350    0.83820   1.00
C1       0.75000    0.25000    0.64480   1.00
C1       0.75000    0.14480    0.75000   1.00
C1       0.85520    0.25000    0.75000   1.00
C1       0.64480    0.25000    0.75000   1.00
C1       0.75000    0.35520    0.75000   1.00
C1       0.75000    0.25000    0.85520   1.00
O1       0.25000    0.75000    0.75000   1.00
Zn1      0.28280    0.71720    0.71720   1.00
Zn1      0.21720    0.78280    0.71720   1.00
Zn1      0.21720    0.71720    0.78280   1.00
Zn1      0.28280    0.78280    0.78280   1.00
O2       0.27350    0.72650    0.66180   1.00
O2       0.27350    0.66180    0.72650   1.00
O2       0.33820    0.72650    0.72650   1.00
O2       0.22650    0.77350    0.66180   1.00
O2       0.16180    0.77350    0.72650   1.00
O2       0.22650    0.83820    0.72650   1.00
O2       0.22650    0.66180    0.77350   1.00
O2       0.16180    0.72650    0.77350   1.00
O2       0.22650    0.72650    0.83820   1.00
O2       0.33820    0.77350    0.77350   1.00
O2       0.27350    0.83820    0.77350   1.00
O2       0.27350    0.77350    0.83820   1.00
C1       0.25000    0.75000    0.64480   1.00
C1       0.25000    0.64480    0.75000   1.00
C1       0.35520    0.75000    0.75000   1.00
C1       0.14480    0.75000    0.75000   1.00
C1       0.25000    0.85520    0.75000   1.00
C1       0.25000    0.75000    0.85520   1.00
O1       0.91500    0.91500    0.91500   1.00
Zn1      0.88220    0.94780    0.94780   1.00
Zn1      0.94780    0.88220    0.94780   1.00
Zn1      0.94780    0.94780    0.88220   1.00
Zn1      0.88220    0.88220    0.88220   1.00
O2       0.89150    0.93850    1.00320   1.00
O2       0.89150    1.00320    0.93850   1.00
O2       0.82680    0.93850    0.93850   1.00
O2       0.93850    0.89150    1.00320   1.00
O2       1.00320    0.89150    0.93850   1.00
O2       0.93850    0.82680    0.93850   1.00
O2       0.93850    1.00320    0.89150   1.00
O2       1.00320    0.93850    0.89150   1.00
O2       0.93850    0.93850    0.82680   1.00
O2       0.82680    0.89150    0.89150   1.00
O2       0.89150    0.82680    0.89150   1.00
O2       0.89150    0.89150    0.82680   1.00
C1       0.91500    0.91500    1.02020   1.00
C1       0.91500    1.02020    0.91500   1.00
C1       0.80980    0.91500    0.91500   1.00
C1       1.02020    0.91500    0.91500   1.00
C1       0.91500    0.80980    0.91500   1.00
C1       0.91500    0.91500    0.80980   1.00
O1       0.41500    0.41500    0.91500   1.00
Zn1      0.38220    0.44780    0.94780   1.00
Zn1      0.44780    0.38220    0.94780   1.00
Zn1      0.44780    0.44780    0.88220   1.00
Zn1      0.38220    0.38220    0.88220   1.00
O2       0.39150    0.43850    1.00320   1.00
O2       0.39150    0.50320    0.93850   1.00
O2       0.32680    0.43850    0.93850   1.00
O2       0.43850    0.39150    1.00320   1.00
O2       0.50320    0.39150    0.93850   1.00
O2       0.43850    0.32680    0.93850   1.00
O2       0.43850    0.50320    0.89150   1.00
O2       0.50320    0.43850    0.89150   1.00
O2       0.43850    0.43850    0.82680   1.00
O2       0.32680    0.39150    0.89150   1.00
O2       0.39150    0.32680    0.89150   1.00
O2       0.39150    0.39150    0.82680   1.00
C1       0.41500    0.41500    1.02020   1.00
C1       0.41500    0.52020    0.91500   1.00
C1       0.30980    0.41500    0.91500   1.00
C1       0.52020    0.41500    0.91500   1.00
C1       0.41500    0.30980    0.91500   1.00
C1       0.41500    0.41500    0.80980   1.00
O1       0.41500    0.91500    0.41500   1.00
Zn1      0.38220    0.94780    0.44780   1.00
Zn1      0.44780    0.88220    0.44780   1.00
Zn1      0.44780    0.94780    0.38220   1.00
Zn1      0.38220    0.88220    0.38220   1.00
O2       0.39150    0.93850    0.50320   1.00
O2       0.39150    1.00320    0.43850   1.00
O2       0.32680    0.93850    0.43850   1.00
O2       0.43850    0.89150    0.50320   1.00
O2       0.50320    0.89150    0.43850   1.00
O2       0.43850    0.82680    0.43850   1.00
O2       0.43850    1.00320    0.39150   1.00
O2       0.50320    0.93850    0.39150   1.00
O2       0.43850    0.93850    0.32680   1.00
O2       0.32680    0.89150    0.39150   1.00
O2       0.39150    0.82680    0.39150   1.00
O2       0.39150    0.89150    0.32680   1.00
C1       0.41500    0.91500    0.52020   1.00
C1       0.41500    1.02020    0.41500   1.00
C1       0.30980    0.91500    0.41500   1.00
C1       0.52020    0.91500    0.41500   1.00
C1       0.41500    0.80980    0.41500   1.00
C1       0.41500    0.91500    0.30980   1.00
O1       0.91500    0.41500    0.41500   1.00
Zn1      0.88220    0.44780    0.44780   1.00
Zn1      0.94780    0.38220    0.44780   1.00
Zn1      0.94780    0.44780    0.38220   1.00
Zn1      0.88220    0.38220    0.38220   1.00
O2       0.89150    0.43850    0.50320   1.00
O2       0.89150    0.50320    0.43850   1.00
O2       0.82680    0.43850    0.43850   1.00
O2       0.93850    0.39150    0.50320   1.00
O2       1.00320    0.39150    0.43850   1.00
O2       0.93850    0.32680    0.43850   1.00
O2       0.93850    0.50320    0.39150   1.00
O2       1.00320    0.43850    0.39150   1.00
O2       0.93850    0.43850    0.32680   1.00
O2       0.82680    0.39150    0.39150   1.00
O2       0.89150    0.32680    0.39150   1.00
O2       0.89150    0.39150    0.32680   1.00
C1       0.91500    0.41500    0.52020   1.00
C1       0.91500    0.52020    0.41500   1.00
C1       0.80980    0.41500    0.41500   1.00
C1       1.02020    0.41500    0.41500   1.00
C1       0.91500    0.30980    0.41500   1.00
C1       0.91500    0.41500    0.30980   1.00
O1       0.41500    0.41500    0.41500   1.00
Zn1      0.44780    0.38220    0.38220   1.00
Zn1      0.38220    0.44780    0.38220   1.00
Zn1      0.38220    0.38220    0.44780   1.00
Zn1      0.44780    0.44780    0.44780   1.00
O2       0.43850    0.39150    0.32680   1.00
O2       0.43850    0.32680    0.39150   1.00
O2       0.50320    0.39150    0.39150   1.00
O2       0.39150    0.43850    0.32680   1.00
O2       0.32680    0.43850    0.39150   1.00
O2       0.39150    0.50320    0.39150   1.00
O2       0.39150    0.32680    0.43850   1.00
O2       0.32680    0.39150    0.43850   1.00
O2       0.39150    0.39150    0.50320   1.00
O2       0.50320    0.43850    0.43850   1.00
O2       0.43850    0.50320    0.43850   1.00
O2       0.43850    0.43850    0.50320   1.00
C1       0.41500    0.41500    0.30980   1.00
C1       0.41500    0.30980    0.41500   1.00
C1       0.52020    0.41500    0.41500   1.00
C1       0.30980    0.41500    0.41500   1.00
C1       0.41500    0.52020    0.41500   1.00
C1       0.41500    0.41500    0.52020   1.00
O1       0.91500    0.91500    0.41500   1.00
Zn1      0.94780    0.88220    0.38220   1.00
Zn1      0.88220    0.94780    0.38220   1.00
Zn1      0.88220    0.88220    0.44780   1.00
Zn1      0.94780    0.94780    0.44780   1.00
O2       0.93850    0.89150    0.32680   1.00
O2       0.93850    0.82680    0.39150   1.00
O2       1.00320    0.89150    0.39150   1.00
O2       0.89150    0.93850    0.32680   1.00
O2       0.82680    0.93850    0.39150   1.00
O2       0.89150    1.00320    0.39150   1.00
O2       0.89150    0.82680    0.43850   1.00
O2       0.82680    0.89150    0.43850   1.00
O2       0.89150    0.89150    0.50320   1.00
O2       1.00320    0.93850    0.43850   1.00
O2       0.93850    1.00320    0.43850   1.00
O2       0.93850    0.93850    0.50320   1.00
C1       0.91500    0.91500    0.30980   1.00
C1       0.91500    0.80980    0.41500   1.00
C1       1.02020    0.91500    0.41500   1.00
C1       0.80980    0.91500    0.41500   1.00
C1       0.91500    1.02020    0.41500   1.00
C1       0.91500    0.91500    0.52020   1.00
O1       0.91500    0.41500    0.91500   1.00
Zn1      0.94780    0.38220    0.88220   1.00
Zn1      0.88220    0.44780    0.88220   1.00
Zn1      0.88220    0.38220    0.94780   1.00
Zn1      0.94780    0.44780    0.94780   1.00
O2       0.93850    0.39150    0.82680   1.00
O2       0.93850    0.32680    0.89150   1.00
O2       1.00320    0.39150    0.89150   1.00
O2       0.89150    0.43850    0.82680   1.00
O2       0.82680    0.43850    0.89150   1.00
O2       0.89150    0.50320    0.89150   1.00
O2       0.89150    0.32680    0.93850   1.00
O2       0.82680    0.39150    0.93850   1.00
O2       0.89150    0.39150    1.00320   1.00
O2       1.00320    0.43850    0.93850   1.00
O2       0.93850    0.50320    0.93850   1.00
O2       0.93850    0.43850    1.00320   1.00
C1       0.91500    0.41500    0.80980   1.00
C1       0.91500    0.30980    0.91500   1.00
C1       1.02020    0.41500    0.91500   1.00
C1       0.80980    0.41500    0.91500   1.00
C1       0.91500    0.52020    0.91500   1.00
C1       0.91500    0.41500    1.02020   1.00
O1       0.41500    0.91500    0.91500   1.00
Zn1      0.44780    0.88220    0.88220   1.00
Zn1      0.38220    0.94780    0.88220   1.00
Zn1      0.38220    0.88220    0.94780   1.00
Zn1      0.44780    0.94780    0.94780   1.00
O2       0.43850    0.89150    0.82680   1.00
O2       0.43850    0.82680    0.89150   1.00
O2       0.50320    0.89150    0.89150   1.00
O2       0.39150    0.93850    0.82680   1.00
O2       0.32680    0.93850    0.89150   1.00
O2       0.39150    1.00320    0.89150   1.00
O2       0.39150    0.82680    0.93850   1.00
O2       0.32680    0.89150    0.93850   1.00
O2       0.39150    0.89150    1.00320   1.00
O2       0.50320    0.93850    0.93850   1.00
O2       0.43850    1.00320    0.93850   1.00
O2       0.43850    0.93850    1.00320   1.00
C1       0.41500    0.91500    0.80980   1.00
C1       0.41500    0.80980    0.91500   1.00
C1       0.52020    0.91500    0.91500   1.00
C1       0.30980    0.91500    0.91500   1.00
C1       0.41500    1.02020    0.91500   1.00
C1       0.41500    0.91500    1.02020   1.00
C4       0.75009    0.75005    0.97915   1.00
C4       0.74991    0.74995    1.02085   1.00
C3       0.75846    0.78381    0.95708   1.00
C3       0.78155    0.73452    1.04225   1.00
C3       0.74173    0.71557    0.95816   1.00
C3a      0.71813    0.76587    1.04263   1.00
C2       0.74933    0.74865    0.89483   1.00
C2       0.75091    0.75115    1.10517   1.00
C3       0.75805    0.78306    0.91566   1.00
C3       0.78199    0.73515    1.08359   1.00
C3       0.74119    0.71494    0.91680   1.00
C3       0.71920    0.76633    1.08415   1.00
H1       0.76529    0.81085    0.97192   1.00
H1       0.80622    0.72215    1.02685   1.00
H1       0.76454    0.80952    0.89968   1.00
H1       0.80684    0.72312    1.09895   1.00
H1       0.73411    0.68806    0.90179   1.00
H1       0.69493    0.77833    1.10043   1.00
C5       0.68226    0.78186    1.02239   1.00
H1       0.73454    0.68920    0.97401   1.00
H2       0.66249    0.79648    1.04354   1.00
H2       0.69122    0.80454    1.00103   1.00
N1       0.66069    0.75056    1.00292   1.00
C6       0.64532    0.71875    1.02012   1.00
C6       0.65227    0.74852    0.96460   1.00
C6       0.62716    0.69590    0.99243   1.00
C6       0.63160    0.71483    0.95711   1.00
H3       0.64735    0.71231    1.05099   1.00
H3       0.66101    0.76995    0.94309   1.00
H3       0.61231    0.66852    0.99741   1.00
H3       0.62099    0.70514    0.92903   1.00
C4       0.75005    0.97915    0.75009   1.00
C4       0.74995    1.02085    0.74991   1.00
C3       0.78381    0.95708    0.75846   1.00
C3       0.73452    1.04225    0.78155   1.00
C3       0.71557    0.95816    0.74173   1.00
C3a      0.76587    1.04263    0.71813   1.00
C2       0.74865    0.89483    0.74933   1.00
C2       0.75115    1.10517    0.75091   1.00
C3       0.78306    0.91566    0.75805   1.00
C3       0.73515    1.08359    0.78199   1.00
C3       0.71494    0.91680    0.74119   1.00
C3       0.76633    1.08415    0.71920   1.00
H1       0.81085    0.97192    0.76529   1.00
H1       0.72215    1.02685    0.80622   1.00
H1       0.80952    0.89968    0.76454   1.00
H1       0.72312    1.09895    0.80684   1.00
H1       0.68806    0.90179    0.73411   1.00
H1       0.77833    1.10043    0.69493   1.00
C5       0.78186    1.02239    0.68226   1.00
H1       0.68920    0.97401    0.73454   1.00
H2       0.79648    1.04354    0.66249   1.00
H2       0.80454    1.00103    0.69122   1.00
N1       0.75056    1.00292    0.66069   1.00
C6       0.71875    1.02012    0.64532   1.00
C6       0.74852    0.96460    0.65227   1.00
C6       0.69590    0.99243    0.62716   1.00
C6       0.71483    0.95711    0.63160   1.00
H3       0.71231    1.05099    0.64735   1.00
H3       0.76995    0.94309    0.66101   1.00
H3       0.66852    0.99741    0.61231   1.00
H3       0.70514    0.92903    0.62099   1.00
C4       0.52085    0.75009    0.74995   1.00
C4       0.47915    0.74991    0.75005   1.00
C3       0.54292    0.75846    0.71619   1.00
C3       0.45775    0.78155    0.76548   1.00
C3       0.54184    0.74173    0.78443   1.00
C3a      0.45737    0.71813    0.73413   1.00
C2       0.60517    0.74933    0.75135   1.00
C2       0.39483    0.75091    0.74885   1.00
C3       0.58434    0.75805    0.71694   1.00
C3       0.41641    0.78199    0.76485   1.00
C3       0.58320    0.74119    0.78506   1.00
C3       0.41585    0.71920    0.73367   1.00
H1       0.52808    0.76529    0.68915   1.00
H1       0.47315    0.80622    0.77785   1.00
H1       0.60032    0.76454    0.69048   1.00
H1       0.40105    0.80684    0.77688   1.00
H1       0.59821    0.73411    0.81194   1.00
H1       0.39957    0.69493    0.72167   1.00
C5       0.47761    0.68226    0.71814   1.00
H1       0.52599    0.73454    0.81080   1.00
H2       0.45646    0.66249    0.70352   1.00
H2       0.49897    0.69122    0.69546   1.00
N1       0.49708    0.66069    0.74944   1.00
C6       0.47988    0.64532    0.78125   1.00
C6       0.53540    0.65227    0.75148   1.00
C6       0.50757    0.62716    0.80410   1.00
C6       0.54289    0.63160    0.78517   1.00
H3       0.44901    0.64735    0.78769   1.00
H3       0.55691    0.66101    0.73005   1.00
H3       0.50259    0.61231    0.83148   1.00
H3       0.57097    0.62099    0.79486   1.00
C4       0.97915    0.75009    0.75005   1.00
C4       1.02085    0.74991    0.74995   1.00
C3       0.95708    0.75846    0.78381   1.00
C3       1.04225    0.78155    0.73452   1.00
C3       0.95816    0.74173    0.71557   1.00
C3a      1.04263    0.71813    0.76587   1.00
C2       0.89483    0.74933    0.74865   1.00
C2       1.10517    0.75091    0.75115   1.00
C3       0.91566    0.75805    0.78306   1.00
C3       1.08359    0.78199    0.73515   1.00
C3       0.91680    0.74119    0.71494   1.00
C3       1.08415    0.71920    0.76633   1.00
H1       0.97192    0.76529    0.81085   1.00
H1       1.02685    0.80622    0.72215   1.00
H1       0.89968    0.76454    0.80952   1.00
H1       1.09895    0.80684    0.72312   1.00
H1       0.90179    0.73411    0.68806   1.00
H1       1.10043    0.69493    0.77833   1.00
C5       1.02239    0.68226    0.78186   1.00
H1       0.97401    0.73454    0.68920   1.00
H2       1.04354    0.66249    0.79648   1.00
H2       1.00103    0.69122    0.80454   1.00
N1       1.00292    0.66069    0.75056   1.00
C6       1.02012    0.64532    0.71875   1.00
C6       0.96460    0.65227    0.74852   1.00
C6       0.99243    0.62716    0.69590   1.00
C6       0.95711    0.63160    0.71483   1.00
H3       1.05099    0.64735    0.71231   1.00
H3       0.94309    0.66101    0.76995   1.00
H3       0.99741    0.61231    0.66852   1.00
H3       0.92903    0.62099    0.70514   1.00
C4       0.74995    0.52085    0.75009   1.00
C4       0.75005    0.47915    0.74991   1.00
C3       0.71619    0.54292    0.75846   1.00
C3       0.76548    0.45775    0.78155   1.00
C3       0.78443    0.54184    0.74173   1.00
C3a      0.73413    0.45737    0.71813   1.00
C2       0.75135    0.60517    0.74933   1.00
C2       0.74885    0.39483    0.75091   1.00
C3       0.71694    0.58434    0.75805   1.00
C3       0.76485    0.41641    0.78199   1.00
C3       0.78506    0.58320    0.74119   1.00
C3       0.73367    0.41585    0.71920   1.00
H1       0.68915    0.52808    0.76529   1.00
H1       0.77785    0.47315    0.80622   1.00
H1       0.69048    0.60032    0.76454   1.00
H1       0.77688    0.40105    0.80684   1.00
H1       0.81194    0.59821    0.73411   1.00
H1       0.72167    0.39957    0.69493   1.00
C5       0.71814    0.47761    0.68226   1.00
H1       0.81080    0.52599    0.73454   1.00
H2       0.70352    0.45646    0.66249   1.00
H2       0.69546    0.49897    0.69122   1.00
N1       0.74944    0.49708    0.66069   1.00
C6       0.78125    0.47988    0.64532   1.00
C6       0.75148    0.53540    0.65227   1.00
C6       0.80410    0.50757    0.62716   1.00
C6       0.78517    0.54289    0.63160   1.00
H3       0.78769    0.44901    0.64735   1.00
H3       0.73005    0.55691    0.66101   1.00
H3       0.83148    0.50259    0.61231   1.00
H3       0.79486    0.57097    0.62099   1.00
C4       0.75009    0.74995    0.52085   1.00
C4       0.74991    0.75005    0.47915   1.00
C3       0.75846    0.71619    0.54292   1.00
C3       0.78155    0.76548    0.45775   1.00
C3       0.74173    0.78443    0.54184   1.00
C3a      0.71813    0.73413    0.45737   1.00
C2       0.74933    0.75135    0.60517   1.00
C2       0.75091    0.74885    0.39483   1.00
C3       0.75805    0.71694    0.58434   1.00
C3       0.78199    0.76485    0.41641   1.00
C3       0.74119    0.78506    0.58320   1.00
C3       0.71920    0.73367    0.41585   1.00
H1       0.76529    0.68915    0.52808   1.00
H1       0.80622    0.77785    0.47315   1.00
H1       0.76454    0.69048    0.60032   1.00
H1       0.80684    0.77688    0.40105   1.00
H1       0.73411    0.81194    0.59821   1.00
H1       0.69493    0.72167    0.39957   1.00
C5       0.68226    0.71814    0.47761   1.00
H1       0.73454    0.81080    0.52599   1.00
H2       0.66249    0.70352    0.45646   1.00
H2       0.69122    0.69546    0.49897   1.00
N1       0.66069    0.74944    0.49708   1.00
C6       0.64532    0.78125    0.47988   1.00
C6       0.65227    0.75148    0.53540   1.00
C6       0.62716    0.80410    0.50757   1.00
C6       0.63160    0.78517    0.54289   1.00
H3       0.64735    0.78769    0.44901   1.00
H3       0.66101    0.73005    0.55691   1.00
H3       0.61231    0.83148    0.50259   1.00
H3       0.62099    0.79486    0.57097   1.00
C4       0.25009    0.25005    0.97915   1.00
C4       0.24991    0.24995    1.02085   1.00
C3       0.25846    0.28381    0.95708   1.00
C3       0.28155    0.23452    1.04225   1.00
C3       0.24173    0.21557    0.95816   1.00
C3a      0.21813    0.26587    1.04263   1.00
C2       0.24933    0.24865    0.89483   1.00
C2       0.25091    0.25115    1.10517   1.00
C3       0.25805    0.28306    0.91566   1.00
C3       0.28199    0.23515    1.08359   1.00
C3       0.24119    0.21494    0.91680   1.00
C3       0.21920    0.26633    1.08415   1.00
H1       0.26529    0.31085    0.97192   1.00
H1       0.30622    0.22215    1.02685   1.00
H1       0.26454    0.30952    0.89968   1.00
H1       0.30684    0.22312    1.09895   1.00
H1       0.23411    0.18806    0.90179   1.00
H1       0.19493    0.27833    1.10043   1.00
C5       0.18226    0.28186    1.02239   1.00
H1       0.23454    0.18920    0.97401   1.00
H2       0.16249    0.29648    1.04354   1.00
H2       0.19122    0.30454    1.00103   1.00
N1       0.16069    0.25056    1.00292   1.00
C6       0.14532    0.21875    1.02012   1.00
C6       0.15227    0.24852    0.96460   1.00
C6       0.12716    0.19590    0.99243   1.00
C6       0.13160    0.21483    0.95711   1.00
H3       0.14735    0.21231    1.05099   1.00
H3       0.16101    0.26995    0.94309   1.00
H3       0.11231    0.16852    0.99741   1.00
H3       0.12099    0.20514    0.92903   1.00
C4       0.25005    0.47915    0.75009   1.00
C4       0.24995    0.52085    0.74991   1.00
C3       0.28381    0.45708    0.75846   1.00
C3       0.23452    0.54225    0.78155   1.00
C3       0.21557    0.45816    0.74173   1.00
C3a      0.26587    0.54263    0.71813   1.00
C2       0.24865    0.39483    0.74933   1.00
C2       0.25115    0.60517    0.75091   1.00
C3       0.28306    0.41566    0.75805   1.00
C3       0.23515    0.58359    0.78199   1.00
C3       0.21494    0.41680    0.74119   1.00
C3       0.26633    0.58415    0.71920   1.00
H1       0.31085    0.47192    0.76529   1.00
H1       0.22215    0.52685    0.80622   1.00
H1       0.30952    0.39968    0.76454   1.00
H1       0.22312    0.59895    0.80684   1.00
H1       0.18806    0.40179    0.73411   1.00
H1       0.27833    0.60043    0.69493   1.00
C5       0.28186    0.52239    0.68226   1.00
H1       0.18920    0.47401    0.73454   1.00
H2       0.29648    0.54354    0.66249   1.00
H2       0.30454    0.50103    0.69122   1.00
N1       0.25056    0.50292    0.66069   1.00
C6       0.21875    0.52012    0.64532   1.00
C6       0.24852    0.46460    0.65227   1.00
C6       0.19590    0.49243    0.62716   1.00
C6       0.21483    0.45711    0.63160   1.00
H3       0.21231    0.55099    0.64735   1.00
H3       0.26995    0.44309    0.66101   1.00
H3       0.16852    0.49741    0.61231   1.00
H3       0.20514    0.42903    0.62099   1.00
C4       0.02085    0.25009    0.74995   1.00
C4       -0.02085   0.24991    0.75005   1.00
C3       0.04292    0.25846    0.71619   1.00
C3       -0.04225   0.28155    0.76548   1.00
C3       0.04184    0.24173    0.78443   1.00
C3a      -0.04263   0.21813    0.73413   1.00
C2       0.10517    0.24933    0.75135   1.00
C2       -0.10517   0.25091    0.74885   1.00
C3       0.08434    0.25805    0.71694   1.00
C3       -0.08359   0.28199    0.76485   1.00
C3       0.08320    0.24119    0.78506   1.00
C3       -0.08415   0.21920    0.73367   1.00
H1       0.02808    0.26529    0.68915   1.00
H1       -0.02685   0.30622    0.77785   1.00
H1       0.10032    0.26454    0.69048   1.00
H1       -0.09895   0.30684    0.77688   1.00
H1       0.09821    0.23411    0.81194   1.00
H1       -0.10043   0.19493    0.72167   1.00
C5       -0.02239   0.18226    0.71814   1.00
H1       0.02599    0.23454    0.81080   1.00
H2       -0.04354   0.16249    0.70352   1.00
H2       -0.00103   0.19122    0.69546   1.00
N1       -0.00292   0.16069    0.74944   1.00
C6       -0.02012   0.14532    0.78125   1.00
C6       0.03540    0.15227    0.75148   1.00
C6       0.00757    0.12716    0.80410   1.00
C6       0.04289    0.13160    0.78517   1.00
H3       -0.05099   0.14735    0.78769   1.00
H3       0.05691    0.16101    0.73005   1.00
H3       0.00259    0.11231    0.83148   1.00
H3       0.07097    0.12099    0.79486   1.00
C4       0.47915    0.25009    0.75005   1.00
C4       0.52085    0.24991    0.74995   1.00
C3       0.45708    0.25846    0.78381   1.00
C3       0.54225    0.28155    0.73452   1.00
C3       0.45816    0.24173    0.71557   1.00
C3a      0.54263    0.21813    0.76587   1.00
C2       0.39483    0.24933    0.74865   1.00
C2       0.60517    0.25091    0.75115   1.00
C3       0.41566    0.25805    0.78306   1.00
C3       0.58359    0.28199    0.73515   1.00
C3       0.41680    0.24119    0.71494   1.00
C3       0.58415    0.21920    0.76633   1.00
H1       0.47192    0.26529    0.81085   1.00
H1       0.52685    0.30622    0.72215   1.00
H1       0.39968    0.26454    0.80952   1.00
H1       0.59895    0.30684    0.72312   1.00
H1       0.40179    0.23411    0.68806   1.00
H1       0.60043    0.19493    0.77833   1.00
C5       0.52239    0.18226    0.78186   1.00
H1       0.47401    0.23454    0.68920   1.00
H2       0.54354    0.16249    0.79648   1.00
H2       0.50103    0.19122    0.80454   1.00
N1       0.50292    0.16069    0.75056   1.00
C6       0.52012    0.14532    0.71875   1.00
C6       0.46460    0.15227    0.74852   1.00
C6       0.49243    0.12716    0.69590   1.00
C6       0.45711    0.13160    0.71483   1.00
H3       0.55099    0.14735    0.71231   1.00
H3       0.44309    0.16101    0.76995   1.00
H3       0.49741    0.11231    0.66852   1.00
H3       0.42903    0.12099    0.70514   1.00
C4       0.24995    0.02085    0.75009   1.00
C4       0.25005    -0.02085   0.74991   1.00
C3       0.21619    0.04292    0.75846   1.00
C3       0.26548    -0.04225   0.78155   1.00
C3       0.28443    0.04184    0.74173   1.00
C3a      0.23413    -0.04263   0.71813   1.00
C2       0.25135    0.10517    0.74933   1.00
C2       0.24885    -0.10517   0.75091   1.00
C3       0.21694    0.08434    0.75805   1.00
C3       0.26485    -0.08359   0.78199   1.00
C3       0.28506    0.08320    0.74119   1.00
C3       0.23367    -0.08415   0.71920   1.00
H1       0.18915    0.02808    0.76529   1.00
H1       0.27785    -0.02685   0.80622   1.00
H1       0.19048    0.10032    0.76454   1.00
H1       0.27688    -0.09895   0.80684   1.00
H1       0.31194    0.09821    0.73411   1.00
H1       0.22167    -0.10043   0.69493   1.00
C5       0.21814    -0.02239   0.68226   1.00
H1       0.31080    0.02599    0.73454   1.00
H2       0.20352    -0.04354   0.66249   1.00
H2       0.19546    -0.00103   0.69122   1.00
N1       0.24944    -0.00292   0.66069   1.00
C6       0.28125    -0.02012   0.64532   1.00
C6       0.25148    0.03540    0.65227   1.00
C6       0.30410    0.00757    0.62716   1.00
C6       0.28517    0.04289    0.63160   1.00
H3       0.28769    -0.05099   0.64735   1.00
H3       0.23005    0.05691    0.66101   1.00
H3       0.33148    0.00259    0.61231   1.00
H3       0.29486    0.07097    0.62099   1.00
C4       0.25009    0.24995    0.52085   1.00
C4       0.24991    0.25005    0.47915   1.00
C3       0.25846    0.21619    0.54292   1.00
C3       0.28155    0.26548    0.45775   1.00
C3       0.24173    0.28443    0.54184   1.00
C3a      0.21813    0.23413    0.45737   1.00
C2       0.24933    0.25135    0.60517   1.00
C2       0.25091    0.24885    0.39483   1.00
C3       0.25805    0.21694    0.58434   1.00
C3       0.28199    0.26485    0.41641   1.00
C3       0.24119    0.28506    0.58320   1.00
C3       0.21920    0.23367    0.41585   1.00
H1       0.26529    0.18915    0.52808   1.00
H1       0.30622    0.27785    0.47315   1.00
H1       0.26454    0.19048    0.60032   1.00
H1       0.30684    0.27688    0.40105   1.00
H1       0.23411    0.31194    0.59821   1.00
H1       0.19493    0.22167    0.39957   1.00
C5       0.18226    0.21814    0.47761   1.00
H1       0.23454    0.31080    0.52599   1.00
H2       0.16249    0.20352    0.45646   1.00
H2       0.19122    0.19546    0.49897   1.00
N1       0.16069    0.24944    0.49708   1.00
C6       0.14532    0.28125    0.47988   1.00
C6       0.15227    0.25148    0.53540   1.00
C6       0.12716    0.30410    0.50757   1.00
C6       0.13160    0.28517    0.54289   1.00
H3       0.14735    0.28769    0.44901   1.00
H3       0.16101    0.23005    0.55691   1.00
H3       0.11231    0.33148    0.50259   1.00
H3       0.12099    0.29486    0.57097   1.00
C4       0.25009    0.75005    0.47915   1.00
C4       0.24991    0.74995    0.52085   1.00
C3       0.25846    0.78381    0.45708   1.00
C3       0.28155    0.73452    0.54225   1.00
C3       0.24173    0.71557    0.45816   1.00
C3a      0.21813    0.76587    0.54263   1.00
C2       0.24933    0.74865    0.39483   1.00
C2       0.25091    0.75115    0.60517   1.00
C3       0.25805    0.78306    0.41566   1.00
C3       0.28199    0.73515    0.58359   1.00
C3       0.24119    0.71494    0.41680   1.00
C3       0.21920    0.76633    0.58415   1.00
H1       0.26529    0.81085    0.47192   1.00
H1       0.30622    0.72215    0.52685   1.00
H1       0.26454    0.80952    0.39968   1.00
H1       0.30684    0.72312    0.59895   1.00
H1       0.23411    0.68806    0.40179   1.00
H1       0.19493    0.77833    0.60043   1.00
C5       0.18226    0.78186    0.52239   1.00
H1       0.23454    0.68920    0.47401   1.00
H2       0.16249    0.79648    0.54354   1.00
H2       0.19122    0.80454    0.50103   1.00
N1       0.16069    0.75056    0.50292   1.00
C6       0.14532    0.71875    0.52012   1.00
C6       0.15227    0.74852    0.46460   1.00
C6       0.12716    0.69590    0.49243   1.00
C6       0.13160    0.71483    0.45711   1.00
H3       0.14735    0.71231    0.55099   1.00
H3       0.16101    0.76995    0.44309   1.00
H3       0.11231    0.66852    0.49741   1.00
H3       0.12099    0.70514    0.42903   1.00
C4       0.25005    0.97915    0.25009   1.00
C4       0.24995    1.02085    0.24991   1.00
C3       0.28381    0.95708    0.25846   1.00
C3       0.23452    1.04225    0.28155   1.00
C3       0.21557    0.95816    0.24173   1.00
C3a      0.26587    1.04263    0.21813   1.00
C2       0.24865    0.89483    0.24933   1.00
C2       0.25115    1.10517    0.25091   1.00
C3       0.28306    0.91566    0.25805   1.00
C3       0.23515    1.08359    0.28199   1.00
C3       0.21494    0.91680    0.24119   1.00
C3       0.26633    1.08415    0.21920   1.00
H1       0.31085    0.97192    0.26529   1.00
H1       0.22215    1.02685    0.30622   1.00
H1       0.30952    0.89968    0.26454   1.00
H1       0.22312    1.09895    0.30684   1.00
H1       0.18806    0.90179    0.23411   1.00
H1       0.27833    1.10043    0.19493   1.00
C5       0.28186    1.02239    0.18226   1.00
H1       0.18920    0.97401    0.23454   1.00
H2       0.29648    1.04354    0.16249   1.00
H2       0.30454    1.00103    0.19122   1.00
N1       0.25056    1.00292    0.16069   1.00
C6       0.21875    1.02012    0.14532   1.00
C6       0.24852    0.96460    0.15227   1.00
C6       0.19590    0.99243    0.12716   1.00
C6       0.21483    0.95711    0.13160   1.00
H3       0.21231    1.05099    0.14735   1.00
H3       0.26995    0.94309    0.16101   1.00
H3       0.16852    0.99741    0.11231   1.00
H3       0.20514    0.92903    0.12099   1.00
C4       0.02085    0.75009    0.24995   1.00
C4       -0.02085   0.74991    0.25005   1.00
C3       0.04292    0.75846    0.21619   1.00
C3       -0.04225   0.78155    0.26548   1.00
C3       0.04184    0.74173    0.28443   1.00
C3a      -0.04263   0.71813    0.23413   1.00
C2       0.10517    0.74933    0.25135   1.00
C2       -0.10517   0.75091    0.24885   1.00
C3       0.08434    0.75805    0.21694   1.00
C3       -0.08359   0.78199    0.26485   1.00
C3       0.08320    0.74119    0.28506   1.00
C3       -0.08415   0.71920    0.23367   1.00
H1       0.02808    0.76529    0.18915   1.00
H1       -0.02685   0.80622    0.27785   1.00
H1       0.10032    0.76454    0.19048   1.00
H1       -0.09895   0.80684    0.27688   1.00
H1       0.09821    0.73411    0.31194   1.00
H1       -0.10043   0.69493    0.22167   1.00
C5       -0.02239   0.68226    0.21814   1.00
H1       0.02599    0.73454    0.31080   1.00
H2       -0.04354   0.66249    0.20352   1.00
H2       -0.00103   0.69122    0.19546   1.00
N1       -0.00292   0.66069    0.24944   1.00
C6       -0.02012   0.64532    0.28125   1.00
C6       0.03540    0.65227    0.25148   1.00
C6       0.00757    0.62716    0.30410   1.00
C6       0.04289    0.63160    0.28517   1.00
H3       -0.05099   0.64735    0.28769   1.00
H3       0.05691    0.66101    0.23005   1.00
H3       0.00259    0.61231    0.33148   1.00
H3       0.07097    0.62099    0.29486   1.00
C4       0.47915    0.75009    0.25005   1.00
C4       0.52085    0.74991    0.24995   1.00
C3       0.45708    0.75846    0.28381   1.00
C3       0.54225    0.78155    0.23452   1.00
C3       0.45816    0.74173    0.21557   1.00
C3a      0.54263    0.71813    0.26587   1.00
C2       0.39483    0.74933    0.24865   1.00
C2       0.60517    0.75091    0.25115   1.00
C3       0.41566    0.75805    0.28306   1.00
C3       0.58359    0.78199    0.23515   1.00
C3       0.41680    0.74119    0.21494   1.00
C3       0.58415    0.71920    0.26633   1.00
H1       0.47192    0.76529    0.31085   1.00
H1       0.52685    0.80622    0.22215   1.00
H1       0.39968    0.76454    0.30952   1.00
H1       0.59895    0.80684    0.22312   1.00
H1       0.40179    0.73411    0.18806   1.00
H1       0.60043    0.69493    0.27833   1.00
C5       0.52239    0.68226    0.28186   1.00
H1       0.47401    0.73454    0.18920   1.00
H2       0.54354    0.66249    0.29648   1.00
H2       0.50103    0.69122    0.30454   1.00
N1       0.50292    0.66069    0.25056   1.00
C6       0.52012    0.64532    0.21875   1.00
C6       0.46460    0.65227    0.24852   1.00
C6       0.49243    0.62716    0.19590   1.00
C6       0.45711    0.63160    0.21483   1.00
H3       0.55099    0.64735    0.21231   1.00
H3       0.44309    0.66101    0.26995   1.00
H3       0.49741    0.61231    0.16852   1.00
H3       0.42903    0.62099    0.20514   1.00
C4       0.24995    0.52085    0.25009   1.00
C4       0.25005    0.47915    0.24991   1.00
C3       0.21619    0.54292    0.25846   1.00
C3       0.26548    0.45775    0.28155   1.00
C3       0.28443    0.54184    0.24173   1.00
C3a      0.23413    0.45737    0.21813   1.00
C2       0.25135    0.60517    0.24933   1.00
C2       0.24885    0.39483    0.25091   1.00
C3       0.21694    0.58434    0.25805   1.00
C3       0.26485    0.41641    0.28199   1.00
C3       0.28506    0.58320    0.24119   1.00
C3       0.23367    0.41585    0.21920   1.00
H1       0.18915    0.52808    0.26529   1.00
H1       0.27785    0.47315    0.30622   1.00
H1       0.19048    0.60032    0.26454   1.00
H1       0.27688    0.40105    0.30684   1.00
H1       0.31194    0.59821    0.23411   1.00
H1       0.22167    0.39957    0.19493   1.00
C5       0.21814    0.47761    0.18226   1.00
H1       0.31080    0.52599    0.23454   1.00
H2       0.20352    0.45646    0.16249   1.00
H2       0.19546    0.49897    0.19122   1.00
N1       0.24944    0.49708    0.16069   1.00
C6       0.28125    0.47988    0.14532   1.00
C6       0.25148    0.53540    0.15227   1.00
C6       0.30410    0.50757    0.12716   1.00
C6       0.28517    0.54289    0.13160   1.00
H3       0.28769    0.44901    0.14735   1.00
H3       0.23005    0.55691    0.16101   1.00
H3       0.33148    0.50259    0.11231   1.00
H3       0.29486    0.57097    0.12099   1.00
C4       0.25009    0.74995    0.02085   1.00
C4       0.24991    0.75005    -0.02085   1.00
C3       0.25846    0.71619    0.04292   1.00
C3       0.28155    0.76548    -0.04225   1.00
C3       0.24173    0.78443    0.04184   1.00
C3a      0.21813    0.73413    -0.04263   1.00
C2       0.24933    0.75135    0.10517   1.00
C2       0.25091    0.74885    -0.10517   1.00
C3       0.25805    0.71694    0.08434   1.00
C3       0.28199    0.76485    -0.08359   1.00
C3       0.24119    0.78506    0.08320   1.00
C3       0.21920    0.73367    -0.08415   1.00
H1       0.26529    0.68915    0.02808   1.00
H1       0.30622    0.77785    -0.02685   1.00
H1       0.26454    0.69048    0.10032   1.00
H1       0.30684    0.77688    -0.09895   1.00
H1       0.23411    0.81194    0.09821   1.00
H1       0.19493    0.72167    -0.10043   1.00
C5       0.18226    0.71814    -0.02239   1.00
H1       0.23454    0.81080    0.02599   1.00
H2       0.16249    0.70352    -0.04354   1.00
H2       0.19122    0.69546    -0.00103   1.00
N1       0.16069    0.74944    -0.00292   1.00
C6       0.14532    0.78125    -0.02012   1.00
C6       0.15227    0.75148    0.03540   1.00
C6       0.12716    0.80410    0.00757   1.00
C6       0.13160    0.78517    0.04289   1.00
H3       0.14735    0.78769    -0.05099   1.00
H3       0.16101    0.73005    0.05691   1.00
H3       0.11231    0.83148    0.00259   1.00
H3       0.12099    0.79486    0.07097   1.00
C4       0.75009    0.25005    0.47915   1.00
C4       0.74991    0.24995    0.52085   1.00
C3       0.75846    0.28381    0.45708   1.00
C3       0.78155    0.23452    0.54225   1.00
C3       0.74173    0.21557    0.45816   1.00
C3a      0.71813    0.26587    0.54263   1.00
C2       0.74933    0.24865    0.39483   1.00
C2       0.75091    0.25115    0.60517   1.00
C3       0.75805    0.28306    0.41566   1.00
C3       0.78199    0.23515    0.58359   1.00
C3       0.74119    0.21494    0.41680   1.00
C3       0.71920    0.26633    0.58415   1.00
H1       0.76529    0.31085    0.47192   1.00
H1       0.80622    0.22215    0.52685   1.00
H1       0.76454    0.30952    0.39968   1.00
H1       0.80684    0.22312    0.59895   1.00
H1       0.73411    0.18806    0.40179   1.00
H1       0.69493    0.27833    0.60043   1.00
C5       0.68226    0.28186    0.52239   1.00
H1       0.73454    0.18920    0.47401   1.00
H2       0.66249    0.29648    0.54354   1.00
H2       0.69122    0.30454    0.50103   1.00
N1       0.66069    0.25056    0.50292   1.00
C6       0.64532    0.21875    0.52012   1.00
C6       0.65227    0.24852    0.46460   1.00
C6       0.62716    0.19590    0.49243   1.00
C6       0.63160    0.21483    0.45711   1.00
H3       0.64735    0.21231    0.55099   1.00
H3       0.66101    0.26995    0.44309   1.00
H3       0.61231    0.16852    0.49741   1.00
H3       0.62099    0.20514    0.42903   1.00
C4       0.75005    0.47915    0.25009   1.00
C4       0.74995    0.52085    0.24991   1.00
C3       0.78381    0.45708    0.25846   1.00
C3       0.73452    0.54225    0.28155   1.00
C3       0.71557    0.45816    0.24173   1.00
C3a      0.76587    0.54263    0.21813   1.00
C2       0.74865    0.39483    0.24933   1.00
C2       0.75115    0.60517    0.25091   1.00
C3       0.78306    0.41566    0.25805   1.00
C3       0.73515    0.58359    0.28199   1.00
C3       0.71494    0.41680    0.24119   1.00
C3       0.76633    0.58415    0.21920   1.00
H1       0.81085    0.47192    0.26529   1.00
H1       0.72215    0.52685    0.30622   1.00
H1       0.80952    0.39968    0.26454   1.00
H1       0.72312    0.59895    0.30684   1.00
H1       0.68806    0.40179    0.23411   1.00
H1       0.77833    0.60043    0.19493   1.00
C5       0.78186    0.52239    0.18226   1.00
H1       0.68920    0.47401    0.23454   1.00
H2       0.79648    0.54354    0.16249   1.00
H2       0.80454    0.50103    0.19122   1.00
N1       0.75056    0.50292    0.16069   1.00
C6       0.71875    0.52012    0.14532   1.00
C6       0.74852    0.46460    0.15227   1.00
C6       0.69590    0.49243    0.12716   1.00
C6       0.71483    0.45711    0.13160   1.00
H3       0.71231    0.55099    0.14735   1.00
H3       0.76995    0.44309    0.16101   1.00
H3       0.66852    0.49741    0.11231   1.00
H3       0.70514    0.42903    0.12099   1.00
C4       0.52085    0.25009    0.24995   1.00
C4       0.47915    0.24991    0.25005   1.00
C3       0.54292    0.25846    0.21619   1.00
C3       0.45775    0.28155    0.26548   1.00
C3       0.54184    0.24173    0.28443   1.00
C3a      0.45737    0.21813    0.23413   1.00
C2       0.60517    0.24933    0.25135   1.00
C2       0.39483    0.25091    0.24885   1.00
C3       0.58434    0.25805    0.21694   1.00
C3       0.41641    0.28199    0.26485   1.00
C3       0.58320    0.24119    0.28506   1.00
C3       0.41585    0.21920    0.23367   1.00
H1       0.52808    0.26529    0.18915   1.00
H1       0.47315    0.30622    0.27785   1.00
H1       0.60032    0.26454    0.19048   1.00
H1       0.40105    0.30684    0.27688   1.00
H1       0.59821    0.23411    0.31194   1.00
H1       0.39957    0.19493    0.22167   1.00
C5       0.47761    0.18226    0.21814   1.00
H1       0.52599    0.23454    0.31080   1.00
H2       0.45646    0.16249    0.20352   1.00
H2       0.49897    0.19122    0.19546   1.00
N1       0.49708    0.16069    0.24944   1.00
C6       0.47988    0.14532    0.28125   1.00
C6       0.53540    0.15227    0.25148   1.00
C6       0.50757    0.12716    0.30410   1.00
C6       0.54289    0.13160    0.28517   1.00
H3       0.44901    0.14735    0.28769   1.00
H3       0.55691    0.16101    0.23005   1.00
H3       0.50259    0.11231    0.33148   1.00
H3       0.57097    0.12099    0.29486   1.00
C4       0.97915    0.25009    0.25005   1.00
C4       1.02085    0.24991    0.24995   1.00
C3       0.95708    0.25846    0.28381   1.00
C3       1.04225    0.28155    0.23452   1.00
C3       0.95816    0.24173    0.21557   1.00
C3a      1.04263    0.21813    0.26587   1.00
C2       0.89483    0.24933    0.24865   1.00
C2       1.10517    0.25091    0.25115   1.00
C3       0.91566    0.25805    0.28306   1.00
C3       1.08359    0.28199    0.23515   1.00
C3       0.91680    0.24119    0.21494   1.00
C3       1.08415    0.21920    0.26633   1.00
H1       0.97192    0.26529    0.31085   1.00
H1       1.02685    0.30622    0.22215   1.00
H1       0.89968    0.26454    0.30952   1.00
H1       1.09895    0.30684    0.22312   1.00
H1       0.90179    0.23411    0.18806   1.00
H1       1.10043    0.19493    0.27833   1.00
C5       1.02239    0.18226    0.28186   1.00
H1       0.97401    0.23454    0.18920   1.00
H2       1.04354    0.16249    0.29648   1.00
H2       1.00103    0.19122    0.30454   1.00
N1       1.00292    0.16069    0.25056   1.00
C6       1.02012    0.14532    0.21875   1.00
C6       0.96460    0.15227    0.24852   1.00
C6       0.99243    0.12716    0.19590   1.00
C6       0.95711    0.13160    0.21483   1.00
H3       1.05099    0.14735    0.21231   1.00
H3       0.94309    0.16101    0.26995   1.00
H3       0.99741    0.11231    0.16852   1.00
H3       0.92903    0.12099    0.20514   1.00
C4       0.74995    0.02085    0.25009   1.00
C4       0.75005    -0.02085   0.24991   1.00
C3       0.71619    0.04292    0.25846   1.00
C3       0.76548    -0.04225   0.28155   1.00
C3       0.78443    0.04184    0.24173   1.00
C3a      0.73413    -0.04263   0.21813   1.00
C2       0.75135    0.10517    0.24933   1.00
C2       0.74885    -0.10517   0.25091   1.00
C3       0.71694    0.08434    0.25805   1.00
C3       0.76485    -0.08359   0.28199   1.00
C3       0.78506    0.08320    0.24119   1.00
C3       0.73367    -0.08415   0.21920   1.00
H1       0.68915    0.02808    0.26529   1.00
H1       0.77785    -0.02685   0.30622   1.00
H1       0.69048    0.10032    0.26454   1.00
H1       0.77688    -0.09895   0.30684   1.00
H1       0.81194    0.09821    0.23411   1.00
H1       0.72167    -0.10043   0.19493   1.00
C5       0.71814    -0.02239   0.18226   1.00
H1       0.81080    0.02599    0.23454   1.00
H2       0.70352    -0.04354   0.16249   1.00
H2       0.69546    -0.00103   0.19122   1.00
N1       0.74944    -0.00292   0.16069   1.00
C6       0.78125    -0.02012   0.14532   1.00
C6       0.75148    0.03540    0.15227   1.00
C6       0.80410    0.00757    0.12716   1.00
C6       0.78517    0.04289    0.13160   1.00
H3       0.78769    -0.05099   0.14735   1.00
H3       0.73005    0.05691    0.16101   1.00
H3       0.83148    0.00259    0.11231   1.00
H3       0.79486    0.07097    0.12099   1.00
C4       0.75009    0.24995    0.02085   1.00
C4       0.74991    0.25005    -0.02085   1.00
C3       0.75846    0.21619    0.04292   1.00
C3       0.78155    0.26548    -0.04225   1.00
C3       0.74173    0.28443    0.04184   1.00
C3a      0.71813    0.23413    -0.04263   1.00
C2       0.74933    0.25135    0.10517   1.00
C2       0.75091    0.24885    -0.10517   1.00
C3       0.75805    0.21694    0.08434   1.00
C3       0.78199    0.26485    -0.08359   1.00
C3       0.74119    0.28506    0.08320   1.00
C3       0.71920    0.23367    -0.08415   1.00
H1       0.76529    0.18915    0.02808   1.00
H1       0.80622    0.27785    -0.02685   1.00
H1       0.76454    0.19048    0.10032   1.00
H1       0.80684    0.27688    -0.09895   1.00
H1       0.73411    0.31194    0.09821   1.00
H1       0.69493    0.22167    -0.10043   1.00
C5       0.68226    0.21814    -0.02239   1.00
H1       0.73454    0.31080    0.02599   1.00
H2       0.66249    0.20352    -0.04354   1.00
H2       0.69122    0.19546    -0.00103   1.00
N1       0.66069    0.24944    -0.00292   1.00
C6       0.64532    0.28125    -0.02012   1.00
C6       0.65227    0.25148    0.03540   1.00
C6       0.62716    0.30410    0.00757   1.00
C6       0.63160    0.28517    0.04289   1.00
H3       0.64735    0.28769    -0.05099   1.00
H3       0.66101    0.23005    0.05691   1.00
H3       0.61231    0.33148    0.00259   1.00
H3       0.62099    0.29486    0.07097   1.00
C4       0.91509    0.91505    1.14415   1.00
C4       0.91491    0.91495    1.18585   1.00
C3       0.92346    0.94881    1.12208   1.00
C3       0.94655    0.89952    1.20725   1.00
C3       0.90673    0.88057    1.12316   1.00
C3a      0.88313    0.93087    1.20763   1.00
C2       0.91433    0.91365    1.05983   1.00
C2       0.91591    0.91615    1.27017   1.00
C3       0.92305    0.94806    1.08066   1.00
C3       0.94699    0.90015    1.24859   1.00
C3       0.90619    0.87994    1.08180   1.00
C3       0.88420    0.93133    1.24915   1.00
H1       0.93029    0.97585    1.13692   1.00
H1       0.97122    0.88715    1.19185   1.00
H1       0.92954    0.97452    1.06468   1.00
H1       0.97184    0.88812    1.26395   1.00
H1       0.89911    0.85306    1.06679   1.00
H1       0.85993    0.94333    1.26543   1.00
C5       0.84726    0.94686    1.18739   1.00
H1       0.89954    0.85420    1.13901   1.00
H2       0.82749    0.96148    1.20854   1.00
H2       0.85622    0.96954    1.16603   1.00
N1       0.82569    0.91556    1.16792   1.00
C6       0.81032    0.88375    1.18512   1.00
C6       0.81727    0.91352    1.12960   1.00
C6       0.79216    0.86090    1.15743   1.00
C6       0.79660    0.87983    1.12211   1.00
H3       0.81235    0.87731    1.21599   1.00
H3       0.82601    0.93495    1.10809   1.00
H3       0.77731    0.83352    1.16241   1.00
H3       0.78599    0.87014    1.09403   1.00
C4       0.91505    1.14415    0.91509   1.00
C4       0.91495    1.18585    0.91491   1.00
C3       0.94881    1.12208    0.92346   1.00
C3       0.89952    1.20725    0.94655   1.00
C3       0.88057    1.12316    0.90673   1.00
C3a      0.93087    1.20763    0.88313   1.00
C2       0.91365    1.05983    0.91433   1.00
C2       0.91615    1.27017    0.91591   1.00
C3       0.94806    1.08066    0.92305   1.00
C3       0.90015    1.24859    0.94699   1.00
C3       0.87994    1.08180    0.90619   1.00
C3       0.93133    1.24915    0.88420   1.00
H1       0.97585    1.13692    0.93029   1.00
H1       0.88715    1.19185    0.97122   1.00
H1       0.97452    1.06468    0.92954   1.00
H1       0.88812    1.26395    0.97184   1.00
H1       0.85306    1.06679    0.89911   1.00
H1       0.94333    1.26543    0.85993   1.00
C5       0.94686    1.18739    0.84726   1.00
H1       0.85420    1.13901    0.89954   1.00
H2       0.96148    1.20854    0.82749   1.00
H2       0.96954    1.16603    0.85622   1.00
N1       0.91556    1.16792    0.82569   1.00
C6       0.88375    1.18512    0.81032   1.00
C6       0.91352    1.12960    0.81727   1.00
C6       0.86090    1.15743    0.79216   1.00
C6       0.87983    1.12211    0.79660   1.00
H3       0.87731    1.21599    0.81235   1.00
H3       0.93495    1.10809    0.82601   1.00
H3       0.83352    1.16241    0.77731   1.00
H3       0.87014    1.09403    0.78599   1.00
C4       0.68585    0.91509    0.91495   1.00
C4       0.64415    0.91491    0.91505   1.00
C3       0.70792    0.92346    0.88119   1.00
C3       0.62275    0.94655    0.93048   1.00
C3       0.70684    0.90673    0.94943   1.00
C3a      0.62237    0.88313    0.89913   1.00
C2       0.77017    0.91433    0.91635   1.00
C2       0.55983    0.91591    0.91385   1.00
C3       0.74934    0.92305    0.88194   1.00
C3       0.58141    0.94699    0.92985   1.00
C3       0.74820    0.90619    0.95006   1.00
C3       0.58085    0.88420    0.89867   1.00
H1       0.69308    0.93029    0.85415   1.00
H1       0.63815    0.97122    0.94285   1.00
H1       0.76532    0.92954    0.85548   1.00
H1       0.56605    0.97184    0.94188   1.00
H1       0.76321    0.89911    0.97694   1.00
H1       0.56457    0.85993    0.88667   1.00
C5       0.64261    0.84726    0.88314   1.00
H1       0.69099    0.89954    0.97580   1.00
H2       0.62146    0.82749    0.86852   1.00
H2       0.66397    0.85622    0.86046   1.00
N1       0.66208    0.82569    0.91444   1.00
C6       0.64488    0.81032    0.94625   1.00
C6       0.70040    0.81727    0.91648   1.00
C6       0.67257    0.79216    0.96910   1.00
C6       0.70789    0.79660    0.95017   1.00
H3       0.61401    0.81235    0.95269   1.00
H3       0.72191    0.82601    0.89505   1.00
H3       0.66759    0.77731    0.99648   1.00
H3       0.73597    0.78599    0.95986   1.00
C4       1.14415    0.91509    0.91505   1.00
C4       1.18585    0.91491    0.91495   1.00
C3       1.12208    0.92346    0.94881   1.00
C3       1.20725    0.94655    0.89952   1.00
C3       1.12316    0.90673    0.88057   1.00
C3a      1.20763    0.88313    0.93087   1.00
C2       1.05983    0.91433    0.91365   1.00
C2       1.27017    0.91591    0.91615   1.00
C3       1.08066    0.92305    0.94806   1.00
C3       1.24859    0.94699    0.90015   1.00
C3       1.08180    0.90619    0.87994   1.00
C3       1.24915    0.88420    0.93133   1.00
H1       1.13692    0.93029    0.97585   1.00
H1       1.19185    0.97122    0.88715   1.00
H1       1.06468    0.92954    0.97452   1.00
H1       1.26395    0.97184    0.88812   1.00
H1       1.06679    0.89911    0.85306   1.00
H1       1.26543    0.85993    0.94333   1.00
C5       1.18739    0.84726    0.94686   1.00
H1       1.13901    0.89954    0.85420   1.00
H2       1.20854    0.82749    0.96148   1.00
H2       1.16603    0.85622    0.96954   1.00
N1       1.16792    0.82569    0.91556   1.00
C6       1.18512    0.81032    0.88375   1.00
C6       1.12960    0.81727    0.91352   1.00
C6       1.15743    0.79216    0.86090   1.00
C6       1.12211    0.79660    0.87983   1.00
H3       1.21599    0.81235    0.87731   1.00
H3       1.10809    0.82601    0.93495   1.00
H3       1.16241    0.77731    0.83352   1.00
H3       1.09403    0.78599    0.87014   1.00
C4       0.91495    0.68585    0.91509   1.00
C4       0.91505    0.64415    0.91491   1.00
C3       0.88119    0.70792    0.92346   1.00
C3       0.93048    0.62275    0.94655   1.00
C3       0.94943    0.70684    0.90673   1.00
C3a      0.89913    0.62237    0.88313   1.00
C2       0.91635    0.77017    0.91433   1.00
C2       0.91385    0.55983    0.91591   1.00
C3       0.88194    0.74934    0.92305   1.00
C3       0.92985    0.58141    0.94699   1.00
C3       0.95006    0.74820    0.90619   1.00
C3       0.89867    0.58085    0.88420   1.00
H1       0.85415    0.69308    0.93029   1.00
H1       0.94285    0.63815    0.97122   1.00
H1       0.85548    0.76532    0.92954   1.00
H1       0.94188    0.56605    0.97184   1.00
H1       0.97694    0.76321    0.89911   1.00
H1       0.88667    0.56457    0.85993   1.00
C5       0.88314    0.64261    0.84726   1.00
H1       0.97580    0.69099    0.89954   1.00
H2       0.86852    0.62146    0.82749   1.00
H2       0.86046    0.66397    0.85622   1.00
N1       0.91444    0.66208    0.82569   1.00
C6       0.94625    0.64488    0.81032   1.00
C6       0.91648    0.70040    0.81727   1.00
C6       0.96910    0.67257    0.79216   1.00
C6       0.95017    0.70789    0.79660   1.00
H3       0.95269    0.61401    0.81235   1.00
H3       0.89505    0.72191    0.82601   1.00
H3       0.99648    0.66759    0.77731   1.00
H3       0.95986    0.73597    0.78599   1.00
C4       0.91509    0.91495    0.68585   1.00
C4       0.91491    0.91505    0.64415   1.00
C3       0.92346    0.88119    0.70792   1.00
C3       0.94655    0.93048    0.62275   1.00
C3       0.90673    0.94943    0.70684   1.00
C3a      0.88313    0.89913    0.62237   1.00
C2       0.91433    0.91635    0.77017   1.00
C2       0.91591    0.91385    0.55983   1.00
C3       0.92305    0.88194    0.74934   1.00
C3       0.94699    0.92985    0.58141   1.00
C3       0.90619    0.95006    0.74820   1.00
C3       0.88420    0.89867    0.58085   1.00
H1       0.93029    0.85415    0.69308   1.00
H1       0.97122    0.94285    0.63815   1.00
H1       0.92954    0.85548    0.76532   1.00
H1       0.97184    0.94188    0.56605   1.00
H1       0.89911    0.97694    0.76321   1.00
H1       0.85993    0.88667    0.56457   1.00
C5       0.84726    0.88314    0.64261   1.00
H1       0.89954    0.97580    0.69099   1.00
H2       0.82749    0.86852    0.62146   1.00
H2       0.85622    0.86046    0.66397   1.00
N1       0.82569    0.91444    0.66208   1.00
C6       0.81032    0.94625    0.64488   1.00
C6       0.81727    0.91648    0.70040   1.00
C6       0.79216    0.96910    0.67257   1.00
C6       0.79660    0.95017    0.70789   1.00
H3       0.81235    0.95269    0.61401   1.00
H3       0.82601    0.89505    0.72191   1.00
H3       0.77731    0.99648    0.66759   1.00
H3       0.78599    0.95986    0.73597   1.00
C4       0.41509    0.41505    1.14415   1.00
C4       0.41491    0.41495    1.18585   1.00
C3       0.42346    0.44881    1.12208   1.00
C3       0.44655    0.39952    1.20725   1.00
C3       0.40673    0.38057    1.12316   1.00
C3a      0.38313    0.43087    1.20763   1.00
C2       0.41433    0.41365    1.05983   1.00
C2       0.41591    0.41615    1.27017   1.00
C3       0.42305    0.44806    1.08066   1.00
C3       0.44699    0.40015    1.24859   1.00
C3       0.40619    0.37994    1.08180   1.00
C3       0.38420    0.43133    1.24915   1.00
H1       0.43029    0.47585    1.13692   1.00
H1       0.47122    0.38715    1.19185   1.00
H1       0.42954    0.47452    1.06468   1.00
H1       0.47184    0.38812    1.26395   1.00
H1       0.39911    0.35306    1.06679   1.00
H1       0.35993    0.44333    1.26543   1.00
C5       0.34726    0.44686    1.18739   1.00
H1       0.39954    0.35420    1.13901   1.00
H2       0.32749    0.46148    1.20854   1.00
H2       0.35622    0.46954    1.16603   1.00
N1       0.32569    0.41556    1.16792   1.00
C6       0.31032    0.38375    1.18512   1.00
C6       0.31727    0.41352    1.12960   1.00
C6       0.29216    0.36090    1.15743   1.00
C6       0.29660    0.37983    1.12211   1.00
H3       0.31235    0.37731    1.21599   1.00
H3       0.32601    0.43495    1.10809   1.00
H3       0.27731    0.33352    1.16241   1.00
H3       0.28599    0.37014    1.09403   1.00
C4       0.41505    0.64415    0.91509   1.00
C4       0.41495    0.68585    0.91491   1.00
C3       0.44881    0.62208    0.92346   1.00
C3       0.39952    0.70725    0.94655   1.00
C3       0.38057    0.62316    0.90673   1.00
C3a      0.43087    0.70763    0.88313   1.00
C2       0.41365    0.55983    0.91433   1.00
C2       0.41615    0.77017    0.91591   1.00
C3       0.44806    0.58066    0.92305   1.00
C3       0.40015    0.74859    0.94699   1.00
C3       0.37994    0.58180    0.90619   1.00
C3       0.43133    0.74915    0.88420   1.00
H1       0.47585    0.63692    0.93029   1.00
H1       0.38715    0.69185    0.97122   1.00
H1       0.47452    0.56468    0.92954   1.00
H1       0.38812    0.76395    0.97184   1.00
H1       0.35306    0.56679    0.89911   1.00
H1       0.44333    0.76543    0.85993   1.00
C5       0.44686    0.68739    0.84726   1.00
H1       0.35420    0.63901    0.89954   1.00
H2       0.46148    0.70854    0.82749   1.00
H2       0.46954    0.66603    0.85622   1.00
N1       0.41556    0.66792    0.82569   1.00
C6       0.38375    0.68512    0.81032   1.00
C6       0.41352    0.62960    0.81727   1.00
C6       0.36090    0.65743    0.79216   1.00
C6       0.37983    0.62211    0.79660   1.00
H3       0.37731    0.71599    0.81235   1.00
H3       0.43495    0.60809    0.82601   1.00
H3       0.33352    0.66241    0.77731   1.00
H3       0.37014    0.59403    0.78599   1.00
C4       0.18585    0.41509    0.91495   1.00
C4       0.14415    0.41491    0.91505   1.00
C3       0.20792    0.42346    0.88119   1.00
C3       0.12275    0.44655    0.93048   1.00
C3       0.20684    0.40673    0.94943   1.00
C3a      0.12237    0.38313    0.89913   1.00
C2       0.27017    0.41433    0.91635   1.00
C2       0.05983    0.41591    0.91385   1.00
C3       0.24934    0.42305    0.88194   1.00
C3       0.08141    0.44699    0.92985   1.00
C3       0.24820    0.40619    0.95006   1.00
C3       0.08085    0.38420    0.89867   1.00
H1       0.19308    0.43029    0.85415   1.00
H1       0.13815    0.47122    0.94285   1.00
H1       0.26532    0.42954    0.85548   1.00
H1       0.06605    0.47184    0.94188   1.00
H1       0.26321    0.39911    0.97694   1.00
H1       0.06457    0.35993    0.88667   1.00
C5       0.14261    0.34726    0.88314   1.00
H1       0.19099    0.39954    0.97580   1.00
H2       0.12146    0.32749    0.86852   1.00
H2       0.16397    0.35622    0.86046   1.00
N1       0.16208    0.32569    0.91444   1.00
C6       0.14488    0.31032    0.94625   1.00
C6       0.20040    0.31727    0.91648   1.00
C6       0.17257    0.29216    0.96910   1.00
C6       0.20789    0.29660    0.95017   1.00
H3       0.11401    0.31235    0.95269   1.00
H3       0.22191    0.32601    0.89505   1.00
H3       0.16759    0.27731    0.99648   1.00
H3       0.23597    0.28599    0.95986   1.00
C4       0.64415    0.41509    0.91505   1.00
C4       0.68585    0.41491    0.91495   1.00
C3       0.62208    0.42346    0.94881   1.00
C3       0.70725    0.44655    0.89952   1.00
C3       0.62316    0.40673    0.88057   1.00
C3a      0.70763    0.38313    0.93087   1.00
C2       0.55983    0.41433    0.91365   1.00
C2       0.77017    0.41591    0.91615   1.00
C3       0.58066    0.42305    0.94806   1.00
C3       0.74859    0.44699    0.90015   1.00
C3       0.58180    0.40619    0.87994   1.00
C3       0.74915    0.38420    0.93133   1.00
H1       0.63692    0.43029    0.97585   1.00
H1       0.69185    0.47122    0.88715   1.00
H1       0.56468    0.42954    0.97452   1.00
H1       0.76395    0.47184    0.88812   1.00
H1       0.56679    0.39911    0.85306   1.00
H1       0.76543    0.35993    0.94333   1.00
C5       0.68739    0.34726    0.94686   1.00
H1       0.63901    0.39954    0.85420   1.00
H2       0.70854    0.32749    0.96148   1.00
H2       0.66603    0.35622    0.96954   1.00
N1       0.66792    0.32569    0.91556   1.00
C6       0.68512    0.31032    0.88375   1.00
C6       0.62960    0.31727    0.91352   1.00
C6       0.65743    0.29216    0.86090   1.00
C6       0.62211    0.29660    0.87983   1.00
H3       0.71599    0.31235    0.87731   1.00
H3       0.60809    0.32601    0.93495   1.00
H3       0.66241    0.27731    0.83352   1.00
H3       0.59403    0.28599    0.87014   1.00
C4       0.41495    0.18585    0.91509   1.00
C4       0.41505    0.14415    0.91491   1.00
C3       0.38119    0.20792    0.92346   1.00
C3       0.43048    0.12275    0.94655   1.00
C3       0.44943    0.20684    0.90673   1.00
C3a      0.39913    0.12237    0.88313   1.00
C2       0.41635    0.27017    0.91433   1.00
C2       0.41385    0.05983    0.91591   1.00
C3       0.38194    0.24934    0.92305   1.00
C3       0.42985    0.08141    0.94699   1.00
C3       0.45006    0.24820    0.90619   1.00
C3       0.39867    0.08085    0.88420   1.00
H1       0.35415    0.19308    0.93029   1.00
H1       0.44285    0.13815    0.97122   1.00
H1       0.35548    0.26532    0.92954   1.00
H1       0.44188    0.06605    0.97184   1.00
H1       0.47694    0.26321    0.89911   1.00
H1       0.38667    0.06457    0.85993   1.00
C5       0.38314    0.14261    0.84726   1.00
H1       0.47580    0.19099    0.89954   1.00
H2       0.36852    0.12146    0.82749   1.00
H2       0.36046    0.16397    0.85622   1.00
N1       0.41444    0.16208    0.82569   1.00
C6       0.44625    0.14488    0.81032   1.00
C6       0.41648    0.20040    0.81727   1.00
C6       0.46910    0.17257    0.79216   1.00
C6       0.45017    0.20789    0.79660   1.00
H3       0.45269    0.11401    0.81235   1.00
H3       0.39505    0.22191    0.82601   1.00
H3       0.49648    0.16759    0.77731   1.00
H3       0.45986    0.23597    0.78599   1.00
C4       0.41509    0.41495    0.68585   1.00
C4       0.41491    0.41505    0.64415   1.00
C3       0.42346    0.38119    0.70792   1.00
C3       0.44655    0.43048    0.62275   1.00
C3       0.40673    0.44943    0.70684   1.00
C3a      0.38313    0.39913    0.62237   1.00
C2       0.41433    0.41635    0.77017   1.00
C2       0.41591    0.41385    0.55983   1.00
C3       0.42305    0.38194    0.74934   1.00
C3       0.44699    0.42985    0.58141   1.00
C3       0.40619    0.45006    0.74820   1.00
C3       0.38420    0.39867    0.58085   1.00
H1       0.43029    0.35415    0.69308   1.00
H1       0.47122    0.44285    0.63815   1.00
H1       0.42954    0.35548    0.76532   1.00
H1       0.47184    0.44188    0.56605   1.00
H1       0.39911    0.47694    0.76321   1.00
H1       0.35993    0.38667    0.56457   1.00
C5       0.34726    0.38314    0.64261   1.00
H1       0.39954    0.47580    0.69099   1.00
H2       0.32749    0.36852    0.62146   1.00
H2       0.35622    0.36046    0.66397   1.00
N1       0.32569    0.41444    0.66208   1.00
C6       0.31032    0.44625    0.64488   1.00
C6       0.31727    0.41648    0.70040   1.00
C6       0.29216    0.46910    0.67257   1.00
C6       0.29660    0.45017    0.70789   1.00
H3       0.31235    0.45269    0.61401   1.00
H3       0.32601    0.39505    0.72191   1.00
H3       0.27731    0.49648    0.66759   1.00
H3       0.28599    0.45986    0.73597   1.00
C4       0.41509    0.91505    0.64415   1.00
C4       0.41491    0.91495    0.68585   1.00
C3       0.42346    0.94881    0.62208   1.00
C3       0.44655    0.89952    0.70725   1.00
C3       0.40673    0.88057    0.62316   1.00
C3a      0.38313    0.93087    0.70763   1.00
C2       0.41433    0.91365    0.55983   1.00
C2       0.41591    0.91615    0.77017   1.00
C3       0.42305    0.94806    0.58066   1.00
C3       0.44699    0.90015    0.74859   1.00
C3       0.40619    0.87994    0.58180   1.00
C3       0.38420    0.93133    0.74915   1.00
H1       0.43029    0.97585    0.63692   1.00
H1       0.47122    0.88715    0.69185   1.00
H1       0.42954    0.97452    0.56468   1.00
H1       0.47184    0.88812    0.76395   1.00
H1       0.39911    0.85306    0.56679   1.00
H1       0.35993    0.94333    0.76543   1.00
C5       0.34726    0.94686    0.68739   1.00
H1       0.39954    0.85420    0.63901   1.00
H2       0.32749    0.96148    0.70854   1.00
H2       0.35622    0.96954    0.66603   1.00
N1       0.32569    0.91556    0.66792   1.00
C6       0.31032    0.88375    0.68512   1.00
C6       0.31727    0.91352    0.62960   1.00
C6       0.29216    0.86090    0.65743   1.00
C6       0.29660    0.87983    0.62211   1.00
H3       0.31235    0.87731    0.71599   1.00
H3       0.32601    0.93495    0.60809   1.00
H3       0.27731    0.83352    0.66241   1.00
H3       0.28599    0.87014    0.59403   1.00
C4       0.41505    1.14415    0.41509   1.00
C4       0.41495    1.18585    0.41491   1.00
C3       0.44881    1.12208    0.42346   1.00
C3       0.39952    1.20725    0.44655   1.00
C3       0.38057    1.12316    0.40673   1.00
C3a      0.43087    1.20763    0.38313   1.00
C2       0.41365    1.05983    0.41433   1.00
C2       0.41615    1.27017    0.41591   1.00
C3       0.44806    1.08066    0.42305   1.00
C3       0.40015    1.24859    0.44699   1.00
C3       0.37994    1.08180    0.40619   1.00
C3       0.43133    1.24915    0.38420   1.00
H1       0.47585    1.13692    0.43029   1.00
H1       0.38715    1.19185    0.47122   1.00
H1       0.47452    1.06468    0.42954   1.00
H1       0.38812    1.26395    0.47184   1.00
H1       0.35306    1.06679    0.39911   1.00
H1       0.44333    1.26543    0.35993   1.00
C5       0.44686    1.18739    0.34726   1.00
H1       0.35420    1.13901    0.39954   1.00
H2       0.46148    1.20854    0.32749   1.00
H2       0.46954    1.16603    0.35622   1.00
N1       0.41556    1.16792    0.32569   1.00
C6       0.38375    1.18512    0.31032   1.00
C6       0.41352    1.12960    0.31727   1.00
C6       0.36090    1.15743    0.29216   1.00
C6       0.37983    1.12211    0.29660   1.00
H3       0.37731    1.21599    0.31235   1.00
H3       0.43495    1.10809    0.32601   1.00
H3       0.33352    1.16241    0.27731   1.00
H3       0.37014    1.09403    0.28599   1.00
C4       0.18585    0.91509    0.41495   1.00
C4       0.14415    0.91491    0.41505   1.00
C3       0.20792    0.92346    0.38119   1.00
C3       0.12275    0.94655    0.43048   1.00
C3       0.20684    0.90673    0.44943   1.00
C3a      0.12237    0.88313    0.39913   1.00
C2       0.27017    0.91433    0.41635   1.00
C2       0.05983    0.91591    0.41385   1.00
C3       0.24934    0.92305    0.38194   1.00
C3       0.08141    0.94699    0.42985   1.00
C3       0.24820    0.90619    0.45006   1.00
C3       0.08085    0.88420    0.39867   1.00
H1       0.19308    0.93029    0.35415   1.00
H1       0.13815    0.97122    0.44285   1.00
H1       0.26532    0.92954    0.35548   1.00
H1       0.06605    0.97184    0.44188   1.00
H1       0.26321    0.89911    0.47694   1.00
H1       0.06457    0.85993    0.38667   1.00
C5       0.14261    0.84726    0.38314   1.00
H1       0.19099    0.89954    0.47580   1.00
H2       0.12146    0.82749    0.36852   1.00
H2       0.16397    0.85622    0.36046   1.00
N1       0.16208    0.82569    0.41444   1.00
C6       0.14488    0.81032    0.44625   1.00
C6       0.20040    0.81727    0.41648   1.00
C6       0.17257    0.79216    0.46910   1.00
C6       0.20789    0.79660    0.45017   1.00
H3       0.11401    0.81235    0.45269   1.00
H3       0.22191    0.82601    0.39505   1.00
H3       0.16759    0.77731    0.49648   1.00
H3       0.23597    0.78599    0.45986   1.00
C4       0.64415    0.91509    0.41505   1.00
C4       0.68585    0.91491    0.41495   1.00
C3       0.62208    0.92346    0.44881   1.00
C3       0.70725    0.94655    0.39952   1.00
C3       0.62316    0.90673    0.38057   1.00
C3a      0.70763    0.88313    0.43087   1.00
C2       0.55983    0.91433    0.41365   1.00
C2       0.77017    0.91591    0.41615   1.00
C3       0.58066    0.92305    0.44806   1.00
C3       0.74859    0.94699    0.40015   1.00
C3       0.58180    0.90619    0.37994   1.00
C3       0.74915    0.88420    0.43133   1.00
H1       0.63692    0.93029    0.47585   1.00
H1       0.69185    0.97122    0.38715   1.00
H1       0.56468    0.92954    0.47452   1.00
H1       0.76395    0.97184    0.38812   1.00
H1       0.56679    0.89911    0.35306   1.00
H1       0.76543    0.85993    0.44333   1.00
C5       0.68739    0.84726    0.44686   1.00
H1       0.63901    0.89954    0.35420   1.00
H2       0.70854    0.82749    0.46148   1.00
H2       0.66603    0.85622    0.46954   1.00
N1       0.66792    0.82569    0.41556   1.00
C6       0.68512    0.81032    0.38375   1.00
C6       0.62960    0.81727    0.41352   1.00
C6       0.65743    0.79216    0.36090   1.00
C6       0.62211    0.79660    0.37983   1.00
H3       0.71599    0.81235    0.37731   1.00
H3       0.60809    0.82601    0.43495   1.00
H3       0.66241    0.77731    0.33352   1.00
H3       0.59403    0.78599    0.37014   1.00
C4       0.41495    0.68585    0.41509   1.00
C4       0.41505    0.64415    0.41491   1.00
C3       0.38119    0.70792    0.42346   1.00
C3       0.43048    0.62275    0.44655   1.00
C3       0.44943    0.70684    0.40673   1.00
C3a      0.39913    0.62237    0.38313   1.00
C2       0.41635    0.77017    0.41433   1.00
C2       0.41385    0.55983    0.41591   1.00
C3       0.38194    0.74934    0.42305   1.00
C3       0.42985    0.58141    0.44699   1.00
C3       0.45006    0.74820    0.40619   1.00
C3       0.39867    0.58085    0.38420   1.00
H1       0.35415    0.69308    0.43029   1.00
H1       0.44285    0.63815    0.47122   1.00
H1       0.35548    0.76532    0.42954   1.00
H1       0.44188    0.56605    0.47184   1.00
H1       0.47694    0.76321    0.39911   1.00
H1       0.38667    0.56457    0.35993   1.00
C5       0.38314    0.64261    0.34726   1.00
H1       0.47580    0.69099    0.39954   1.00
H2       0.36852    0.62146    0.32749   1.00
H2       0.36046    0.66397    0.35622   1.00
N1       0.41444    0.66208    0.32569   1.00
C6       0.44625    0.64488    0.31032   1.00
C6       0.41648    0.70040    0.31727   1.00
C6       0.46910    0.67257    0.29216   1.00
C6       0.45017    0.70789    0.29660   1.00
H3       0.45269    0.61401    0.31235   1.00
H3       0.39505    0.72191    0.32601   1.00
H3       0.49648    0.66759    0.27731   1.00
H3       0.45986    0.73597    0.28599   1.00
C4       0.41509    0.91495    0.18585   1.00
C4       0.41491    0.91505    0.14415   1.00
C3       0.42346    0.88119    0.20792   1.00
C3       0.44655    0.93048    0.12275   1.00
C3       0.40673    0.94943    0.20684   1.00
C3a      0.38313    0.89913    0.12237   1.00
C2       0.41433    0.91635    0.27017   1.00
C2       0.41591    0.91385    0.05983   1.00
C3       0.42305    0.88194    0.24934   1.00
C3       0.44699    0.92985    0.08141   1.00
C3       0.40619    0.95006    0.24820   1.00
C3       0.38420    0.89867    0.08085   1.00
H1       0.43029    0.85415    0.19308   1.00
H1       0.47122    0.94285    0.13815   1.00
H1       0.42954    0.85548    0.26532   1.00
H1       0.47184    0.94188    0.06605   1.00
H1       0.39911    0.97694    0.26321   1.00
H1       0.35993    0.88667    0.06457   1.00
C5       0.34726    0.88314    0.14261   1.00
H1       0.39954    0.97580    0.19099   1.00
H2       0.32749    0.86852    0.12146   1.00
H2       0.35622    0.86046    0.16397   1.00
N1       0.32569    0.91444    0.16208   1.00
C6       0.31032    0.94625    0.14488   1.00
C6       0.31727    0.91648    0.20040   1.00
C6       0.29216    0.96910    0.17257   1.00
C6       0.29660    0.95017    0.20789   1.00
H3       0.31235    0.95269    0.11401   1.00
H3       0.32601    0.89505    0.22191   1.00
H3       0.27731    0.99648    0.16759   1.00
H3       0.28599    0.95986    0.23597   1.00
C4       0.91509    0.41505    0.64415   1.00
C4       0.91491    0.41495    0.68585   1.00
C3       0.92346    0.44881    0.62208   1.00
C3       0.94655    0.39952    0.70725   1.00
C3       0.90673    0.38057    0.62316   1.00
C3a      0.88313    0.43087    0.70763   1.00
C2       0.91433    0.41365    0.55983   1.00
C2       0.91591    0.41615    0.77017   1.00
C3       0.92305    0.44806    0.58066   1.00
C3       0.94699    0.40015    0.74859   1.00
C3       0.90619    0.37994    0.58180   1.00
C3       0.88420    0.43133    0.74915   1.00
H1       0.93029    0.47585    0.63692   1.00
H1       0.97122    0.38715    0.69185   1.00
H1       0.92954    0.47452    0.56468   1.00
H1       0.97184    0.38812    0.76395   1.00
H1       0.89911    0.35306    0.56679   1.00
H1       0.85993    0.44333    0.76543   1.00
C5       0.84726    0.44686    0.68739   1.00
H1       0.89954    0.35420    0.63901   1.00
H2       0.82749    0.46148    0.70854   1.00
H2       0.85622    0.46954    0.66603   1.00
N1       0.82569    0.41556    0.66792   1.00
C6       0.81032    0.38375    0.68512   1.00
C6       0.81727    0.41352    0.62960   1.00
C6       0.79216    0.36090    0.65743   1.00
C6       0.79660    0.37983    0.62211   1.00
H3       0.81235    0.37731    0.71599   1.00
H3       0.82601    0.43495    0.60809   1.00
H3       0.77731    0.33352    0.66241   1.00
H3       0.78599    0.37014    0.59403   1.00
C4       0.91505    0.64415    0.41509   1.00
C4       0.91495    0.68585    0.41491   1.00
C3       0.94881    0.62208    0.42346   1.00
C3       0.89952    0.70725    0.44655   1.00
C3       0.88057    0.62316    0.40673   1.00
C3a      0.93087    0.70763    0.38313   1.00
C2       0.91365    0.55983    0.41433   1.00
C2       0.91615    0.77017    0.41591   1.00
C3       0.94806    0.58066    0.42305   1.00
C3       0.90015    0.74859    0.44699   1.00
C3       0.87994    0.58180    0.40619   1.00
C3       0.93133    0.74915    0.38420   1.00
H1       0.97585    0.63692    0.43029   1.00
H1       0.88715    0.69185    0.47122   1.00
H1       0.97452    0.56468    0.42954   1.00
H1       0.88812    0.76395    0.47184   1.00
H1       0.85306    0.56679    0.39911   1.00
H1       0.94333    0.76543    0.35993   1.00
C5       0.94686    0.68739    0.34726   1.00
H1       0.85420    0.63901    0.39954   1.00
H2       0.96148    0.70854    0.32749   1.00
H2       0.96954    0.66603    0.35622   1.00
N1       0.91556    0.66792    0.32569   1.00
C6       0.88375    0.68512    0.31032   1.00
C6       0.91352    0.62960    0.31727   1.00
C6       0.86090    0.65743    0.29216   1.00
C6       0.87983    0.62211    0.29660   1.00
H3       0.87731    0.71599    0.31235   1.00
H3       0.93495    0.60809    0.32601   1.00
H3       0.83352    0.66241    0.27731   1.00
H3       0.87014    0.59403    0.28599   1.00
C4       0.68585    0.41509    0.41495   1.00
C4       0.64415    0.41491    0.41505   1.00
C3       0.70792    0.42346    0.38119   1.00
C3       0.62275    0.44655    0.43048   1.00
C3       0.70684    0.40673    0.44943   1.00
C3a      0.62237    0.38313    0.39913   1.00
C2       0.77017    0.41433    0.41635   1.00
C2       0.55983    0.41591    0.41385   1.00
C3       0.74934    0.42305    0.38194   1.00
C3       0.58141    0.44699    0.42985   1.00
C3       0.74820    0.40619    0.45006   1.00
C3       0.58085    0.38420    0.39867   1.00
H1       0.69308    0.43029    0.35415   1.00
H1       0.63815    0.47122    0.44285   1.00
H1       0.76532    0.42954    0.35548   1.00
H1       0.56605    0.47184    0.44188   1.00
H1       0.76321    0.39911    0.47694   1.00
H1       0.56457    0.35993    0.38667   1.00
C5       0.64261    0.34726    0.38314   1.00
H1       0.69099    0.39954    0.47580   1.00
H2       0.62146    0.32749    0.36852   1.00
H2       0.66397    0.35622    0.36046   1.00
N1       0.66208    0.32569    0.41444   1.00
C6       0.64488    0.31032    0.44625   1.00
C6       0.70040    0.31727    0.41648   1.00
C6       0.67257    0.29216    0.46910   1.00
C6       0.70789    0.29660    0.45017   1.00
H3       0.61401    0.31235    0.45269   1.00
H3       0.72191    0.32601    0.39505   1.00
H3       0.66759    0.27731    0.49648   1.00
H3       0.73597    0.28599    0.45986   1.00
C4       1.14415    0.41509    0.41505   1.00
C4       1.18585    0.41491    0.41495   1.00
C3       1.12208    0.42346    0.44881   1.00
C3       1.20725    0.44655    0.39952   1.00
C3       1.12316    0.40673    0.38057   1.00
C3a      1.20763    0.38313    0.43087   1.00
C2       1.05983    0.41433    0.41365   1.00
C2       1.27017    0.41591    0.41615   1.00
C3       1.08066    0.42305    0.44806   1.00
C3       1.24859    0.44699    0.40015   1.00
C3       1.08180    0.40619    0.37994   1.00
C3       1.24915    0.38420    0.43133   1.00
H1       1.13692    0.43029    0.47585   1.00
H1       1.19185    0.47122    0.38715   1.00
H1       1.06468    0.42954    0.47452   1.00
H1       1.26395    0.47184    0.38812   1.00
H1       1.06679    0.39911    0.35306   1.00
H1       1.26543    0.35993    0.44333   1.00
C5       1.18739    0.34726    0.44686   1.00
H1       1.13901    0.39954    0.35420   1.00
H2       1.20854    0.32749    0.46148   1.00
H2       1.16603    0.35622    0.46954   1.00
N1       1.16792    0.32569    0.41556   1.00
C6       1.18512    0.31032    0.38375   1.00
C6       1.12960    0.31727    0.41352   1.00
C6       1.15743    0.29216    0.36090   1.00
C6       1.12211    0.29660    0.37983   1.00
H3       1.21599    0.31235    0.37731   1.00
H3       1.10809    0.32601    0.43495   1.00
H3       1.16241    0.27731    0.33352   1.00
H3       1.09403    0.28599    0.37014   1.00
C4       0.91495    0.18585    0.41509   1.00
C4       0.91505    0.14415    0.41491   1.00
C3       0.88119    0.20792    0.42346   1.00
C3       0.93048    0.12275    0.44655   1.00
C3       0.94943    0.20684    0.40673   1.00
C3a      0.89913    0.12237    0.38313   1.00
C2       0.91635    0.27017    0.41433   1.00
C2       0.91385    0.05983    0.41591   1.00
C3       0.88194    0.24934    0.42305   1.00
C3       0.92985    0.08141    0.44699   1.00
C3       0.95006    0.24820    0.40619   1.00
C3       0.89867    0.08085    0.38420   1.00
H1       0.85415    0.19308    0.43029   1.00
H1       0.94285    0.13815    0.47122   1.00
H1       0.85548    0.26532    0.42954   1.00
H1       0.94188    0.06605    0.47184   1.00
H1       0.97694    0.26321    0.39911   1.00
H1       0.88667    0.06457    0.35993   1.00
C5       0.88314    0.14261    0.34726   1.00
H1       0.97580    0.19099    0.39954   1.00
H2       0.86852    0.12146    0.32749   1.00
H2       0.86046    0.16397    0.35622   1.00
N1       0.91444    0.16208    0.32569   1.00
C6       0.94625    0.14488    0.31032   1.00
C6       0.91648    0.20040    0.31727   1.00
C6       0.96910    0.17257    0.29216   1.00
C6       0.95017    0.20789    0.29660   1.00
H3       0.95269    0.11401    0.31235   1.00
H3       0.89505    0.22191    0.32601   1.00
H3       0.99648    0.16759    0.27731   1.00
H3       0.95986    0.23597    0.28599   1.00
C4       0.91509    0.41495    0.18585   1.00
C4       0.91491    0.41505    0.14415   1.00
C3       0.92346    0.38119    0.20792   1.00
C3       0.94655    0.43048    0.12275   1.00
C3       0.90673    0.44943    0.20684   1.00
C3a      0.88313    0.39913    0.12237   1.00
C2       0.91433    0.41635    0.27017   1.00
C2       0.91591    0.41385    0.05983   1.00
C3       0.92305    0.38194    0.24934   1.00
C3       0.94699    0.42985    0.08141   1.00
C3       0.90619    0.45006    0.24820   1.00
C3       0.88420    0.39867    0.08085   1.00
H1       0.93029    0.35415    0.19308   1.00
H1       0.97122    0.44285    0.13815   1.00
H1       0.92954    0.35548    0.26532   1.00
H1       0.97184    0.44188    0.06605   1.00
H1       0.89911    0.47694    0.26321   1.00
H1       0.85993    0.38667    0.06457   1.00
C5       0.84726    0.38314    0.14261   1.00
H1       0.89954    0.47580    0.19099   1.00
H2       0.82749    0.36852    0.12146   1.00
H2       0.85622    0.36046    0.16397   1.00
N1       0.82569    0.41444    0.16208   1.00
C6       0.81032    0.44625    0.14488   1.00
C6       0.81727    0.41648    0.20040   1.00
C6       0.79216    0.46910    0.17257   1.00
C6       0.79660    0.45017    0.20789   1.00
H3       0.81235    0.45269    0.11401   1.00
H3       0.82601    0.39505    0.22191   1.00
H3       0.77731    0.49648    0.16759   1.00
H3       0.78599    0.45986    0.23597   1.00
