data_IRMOF10_SG202_interpen_Ligand9cp_label_j.

_audit_creation_method             'generated by an auxiliary program of Tobunporous'

_symmetry_space_group_name_H-M     'P 1'
_symmetry_Int_Tables_number        1
_symmetry_cell_setting             triclinic

_cell_length_a                    34.2800
_cell_length_b                    34.2800
_cell_length_c                    34.2800
_cell_angle_alpha                 90.0000
_cell_angle_beta                  90.0000
_cell_angle_gamma                 90.0000

loop_
_atom_site_label
_atom_site_fract_x
_atom_site_fract_y
_atom_site_fract_z
_atom_site_occupancy
O1       0.75000    0.75000    0.75000   1.00
Zn1      0.71720    0.78280    0.78280   1.00
Zn1      0.78280    0.71720    0.78280   1.00
Zn1      0.78280    0.78280    0.71720   1.00
Zn1      0.71720    0.71720    0.71720   1.00
O2       0.72650    0.77350    0.83820   1.00
O2       0.72650    0.83820    0.77350   1.00
O2       0.66180    0.77350    0.77350   1.00
O2       0.77350    0.72650    0.83820   1.00
O2       0.83820    0.72650    0.77350   1.00
O2       0.77350    0.66180    0.77350   1.00
O2       0.77350    0.83820    0.72650   1.00
O2       0.83820    0.77350    0.72650   1.00
O2       0.77350    0.77350    0.66180   1.00
O2       0.66180    0.72650    0.72650   1.00
O2       0.72650    0.66180    0.72650   1.00
O2       0.72650    0.72650    0.66180   1.00
C1       0.75000    0.75000    0.85520   1.00
C1       0.75000    0.85520    0.75000   1.00
C1       0.64480    0.75000    0.75000   1.00
C1       0.85520    0.75000    0.75000   1.00
C1       0.75000    0.64480    0.75000   1.00
C1       0.75000    0.75000    0.64480   1.00
O1       0.25000    0.25000    0.75000   1.00
Zn1      0.21720    0.28280    0.78280   1.00
Zn1      0.28280    0.21720    0.78280   1.00
Zn1      0.28280    0.28280    0.71720   1.00
Zn1      0.21720    0.21720    0.71720   1.00
O2       0.22650    0.27350    0.83820   1.00
O2       0.22650    0.33820    0.77350   1.00
O2       0.16180    0.27350    0.77350   1.00
O2       0.27350    0.22650    0.83820   1.00
O2       0.33820    0.22650    0.77350   1.00
O2       0.27350    0.16180    0.77350   1.00
O2       0.27350    0.33820    0.72650   1.00
O2       0.33820    0.27350    0.72650   1.00
O2       0.27350    0.27350    0.66180   1.00
O2       0.16180    0.22650    0.72650   1.00
O2       0.22650    0.16180    0.72650   1.00
O2       0.22650    0.22650    0.66180   1.00
C1       0.25000    0.25000    0.85520   1.00
C1       0.25000    0.35520    0.75000   1.00
C1       0.14480    0.25000    0.75000   1.00
C1       0.35520    0.25000    0.75000   1.00
C1       0.25000    0.14480    0.75000   1.00
C1       0.25000    0.25000    0.64480   1.00
O1       0.25000    0.75000    0.25000   1.00
Zn1      0.21720    0.78280    0.28280   1.00
Zn1      0.28280    0.71720    0.28280   1.00
Zn1      0.28280    0.78280    0.21720   1.00
Zn1      0.21720    0.71720    0.21720   1.00
O2       0.22650    0.77350    0.33820   1.00
O2       0.22650    0.83820    0.27350   1.00
O2       0.16180    0.77350    0.27350   1.00
O2       0.27350    0.72650    0.33820   1.00
O2       0.33820    0.72650    0.27350   1.00
O2       0.27350    0.66180    0.27350   1.00
O2       0.27350    0.83820    0.22650   1.00
O2       0.33820    0.77350    0.22650   1.00
O2       0.27350    0.77350    0.16180   1.00
O2       0.16180    0.72650    0.22650   1.00
O2       0.22650    0.66180    0.22650   1.00
O2       0.22650    0.72650    0.16180   1.00
C1       0.25000    0.75000    0.35520   1.00
C1       0.25000    0.85520    0.25000   1.00
C1       0.14480    0.75000    0.25000   1.00
C1       0.35520    0.75000    0.25000   1.00
C1       0.25000    0.64480    0.25000   1.00
C1       0.25000    0.75000    0.14480   1.00
O1       0.75000    0.25000    0.25000   1.00
Zn1      0.71720    0.28280    0.28280   1.00
Zn1      0.78280    0.21720    0.28280   1.00
Zn1      0.78280    0.28280    0.21720   1.00
Zn1      0.71720    0.21720    0.21720   1.00
O2       0.72650    0.27350    0.33820   1.00
O2       0.72650    0.33820    0.27350   1.00
O2       0.66180    0.27350    0.27350   1.00
O2       0.77350    0.22650    0.33820   1.00
O2       0.83820    0.22650    0.27350   1.00
O2       0.77350    0.16180    0.27350   1.00
O2       0.77350    0.33820    0.22650   1.00
O2       0.83820    0.27350    0.22650   1.00
O2       0.77350    0.27350    0.16180   1.00
O2       0.66180    0.22650    0.22650   1.00
O2       0.72650    0.16180    0.22650   1.00
O2       0.72650    0.22650    0.16180   1.00
C1       0.75000    0.25000    0.35520   1.00
C1       0.75000    0.35520    0.25000   1.00
C1       0.64480    0.25000    0.25000   1.00
C1       0.85520    0.25000    0.25000   1.00
C1       0.75000    0.14480    0.25000   1.00
C1       0.75000    0.25000    0.14480   1.00
O1       0.25000    0.25000    0.25000   1.00
Zn1      0.28280    0.21720    0.21720   1.00
Zn1      0.21720    0.28280    0.21720   1.00
Zn1      0.21720    0.21720    0.28280   1.00
Zn1      0.28280    0.28280    0.28280   1.00
O2       0.27350    0.22650    0.16180   1.00
O2       0.27350    0.16180    0.22650   1.00
O2       0.33820    0.22650    0.22650   1.00
O2       0.22650    0.27350    0.16180   1.00
O2       0.16180    0.27350    0.22650   1.00
O2       0.22650    0.33820    0.22650   1.00
O2       0.22650    0.16180    0.27350   1.00
O2       0.16180    0.22650    0.27350   1.00
O2       0.22650    0.22650    0.33820   1.00
O2       0.33820    0.27350    0.27350   1.00
O2       0.27350    0.33820    0.27350   1.00
O2       0.27350    0.27350    0.33820   1.00
C1       0.25000    0.25000    0.14480   1.00
C1       0.25000    0.14480    0.25000   1.00
C1       0.35520    0.25000    0.25000   1.00
C1       0.14480    0.25000    0.25000   1.00
C1       0.25000    0.35520    0.25000   1.00
C1       0.25000    0.25000    0.35520   1.00
O1       0.75000    0.75000    0.25000   1.00
Zn1      0.78280    0.71720    0.21720   1.00
Zn1      0.71720    0.78280    0.21720   1.00
Zn1      0.71720    0.71720    0.28280   1.00
Zn1      0.78280    0.78280    0.28280   1.00
O2       0.77350    0.72650    0.16180   1.00
O2       0.77350    0.66180    0.22650   1.00
O2       0.83820    0.72650    0.22650   1.00
O2       0.72650    0.77350    0.16180   1.00
O2       0.66180    0.77350    0.22650   1.00
O2       0.72650    0.83820    0.22650   1.00
O2       0.72650    0.66180    0.27350   1.00
O2       0.66180    0.72650    0.27350   1.00
O2       0.72650    0.72650    0.33820   1.00
O2       0.83820    0.77350    0.27350   1.00
O2       0.77350    0.83820    0.27350   1.00
O2       0.77350    0.77350    0.33820   1.00
C1       0.75000    0.75000    0.14480   1.00
C1       0.75000    0.64480    0.25000   1.00
C1       0.85520    0.75000    0.25000   1.00
C1       0.64480    0.75000    0.25000   1.00
C1       0.75000    0.85520    0.25000   1.00
C1       0.75000    0.75000    0.35520   1.00
O1       0.75000    0.25000    0.75000   1.00
Zn1      0.78280    0.21720    0.71720   1.00
Zn1      0.71720    0.28280    0.71720   1.00
Zn1      0.71720    0.21720    0.78280   1.00
Zn1      0.78280    0.28280    0.78280   1.00
O2       0.77350    0.22650    0.66180   1.00
O2       0.77350    0.16180    0.72650   1.00
O2       0.83820    0.22650    0.72650   1.00
O2       0.72650    0.27350    0.66180   1.00
O2       0.66180    0.27350    0.72650   1.00
O2       0.72650    0.33820    0.72650   1.00
O2       0.72650    0.16180    0.77350   1.00
O2       0.66180    0.22650    0.77350   1.00
O2       0.72650    0.22650    0.83820   1.00
O2       0.83820    0.27350    0.77350   1.00
O2       0.77350    0.33820    0.77350   1.00
O2       0.77350    0.27350    0.83820   1.00
C1       0.75000    0.25000    0.64480   1.00
C1       0.75000    0.14480    0.75000   1.00
C1       0.85520    0.25000    0.75000   1.00
C1       0.64480    0.25000    0.75000   1.00
C1       0.75000    0.35520    0.75000   1.00
C1       0.75000    0.25000    0.85520   1.00
O1       0.25000    0.75000    0.75000   1.00
Zn1      0.28280    0.71720    0.71720   1.00
Zn1      0.21720    0.78280    0.71720   1.00
Zn1      0.21720    0.71720    0.78280   1.00
Zn1      0.28280    0.78280    0.78280   1.00
O2       0.27350    0.72650    0.66180   1.00
O2       0.27350    0.66180    0.72650   1.00
O2       0.33820    0.72650    0.72650   1.00
O2       0.22650    0.77350    0.66180   1.00
O2       0.16180    0.77350    0.72650   1.00
O2       0.22650    0.83820    0.72650   1.00
O2       0.22650    0.66180    0.77350   1.00
O2       0.16180    0.72650    0.77350   1.00
O2       0.22650    0.72650    0.83820   1.00
O2       0.33820    0.77350    0.77350   1.00
O2       0.27350    0.83820    0.77350   1.00
O2       0.27350    0.77350    0.83820   1.00
C1       0.25000    0.75000    0.64480   1.00
C1       0.25000    0.64480    0.75000   1.00
C1       0.35520    0.75000    0.75000   1.00
C1       0.14480    0.75000    0.75000   1.00
C1       0.25000    0.85520    0.75000   1.00
C1       0.25000    0.75000    0.85520   1.00
O1       0.91500    0.91500    0.91500   1.00
Zn1      0.88220    0.94780    0.94780   1.00
Zn1      0.94780    0.88220    0.94780   1.00
Zn1      0.94780    0.94780    0.88220   1.00
Zn1      0.88220    0.88220    0.88220   1.00
O2       0.89150    0.93850    1.00320   1.00
O2       0.89150    1.00320    0.93850   1.00
O2       0.82680    0.93850    0.93850   1.00
O2       0.93850    0.89150    1.00320   1.00
O2       1.00320    0.89150    0.93850   1.00
O2       0.93850    0.82680    0.93850   1.00
O2       0.93850    1.00320    0.89150   1.00
O2       1.00320    0.93850    0.89150   1.00
O2       0.93850    0.93850    0.82680   1.00
O2       0.82680    0.89150    0.89150   1.00
O2       0.89150    0.82680    0.89150   1.00
O2       0.89150    0.89150    0.82680   1.00
C1       0.91500    0.91500    1.02020   1.00
C1       0.91500    1.02020    0.91500   1.00
C1       0.80980    0.91500    0.91500   1.00
C1       1.02020    0.91500    0.91500   1.00
C1       0.91500    0.80980    0.91500   1.00
C1       0.91500    0.91500    0.80980   1.00
O1       0.41500    0.41500    0.91500   1.00
Zn1      0.38220    0.44780    0.94780   1.00
Zn1      0.44780    0.38220    0.94780   1.00
Zn1      0.44780    0.44780    0.88220   1.00
Zn1      0.38220    0.38220    0.88220   1.00
O2       0.39150    0.43850    1.00320   1.00
O2       0.39150    0.50320    0.93850   1.00
O2       0.32680    0.43850    0.93850   1.00
O2       0.43850    0.39150    1.00320   1.00
O2       0.50320    0.39150    0.93850   1.00
O2       0.43850    0.32680    0.93850   1.00
O2       0.43850    0.50320    0.89150   1.00
O2       0.50320    0.43850    0.89150   1.00
O2       0.43850    0.43850    0.82680   1.00
O2       0.32680    0.39150    0.89150   1.00
O2       0.39150    0.32680    0.89150   1.00
O2       0.39150    0.39150    0.82680   1.00
C1       0.41500    0.41500    1.02020   1.00
C1       0.41500    0.52020    0.91500   1.00
C1       0.30980    0.41500    0.91500   1.00
C1       0.52020    0.41500    0.91500   1.00
C1       0.41500    0.30980    0.91500   1.00
C1       0.41500    0.41500    0.80980   1.00
O1       0.41500    0.91500    0.41500   1.00
Zn1      0.38220    0.94780    0.44780   1.00
Zn1      0.44780    0.88220    0.44780   1.00
Zn1      0.44780    0.94780    0.38220   1.00
Zn1      0.38220    0.88220    0.38220   1.00
O2       0.39150    0.93850    0.50320   1.00
O2       0.39150    1.00320    0.43850   1.00
O2       0.32680    0.93850    0.43850   1.00
O2       0.43850    0.89150    0.50320   1.00
O2       0.50320    0.89150    0.43850   1.00
O2       0.43850    0.82680    0.43850   1.00
O2       0.43850    1.00320    0.39150   1.00
O2       0.50320    0.93850    0.39150   1.00
O2       0.43850    0.93850    0.32680   1.00
O2       0.32680    0.89150    0.39150   1.00
O2       0.39150    0.82680    0.39150   1.00
O2       0.39150    0.89150    0.32680   1.00
C1       0.41500    0.91500    0.52020   1.00
C1       0.41500    1.02020    0.41500   1.00
C1       0.30980    0.91500    0.41500   1.00
C1       0.52020    0.91500    0.41500   1.00
C1       0.41500    0.80980    0.41500   1.00
C1       0.41500    0.91500    0.30980   1.00
O1       0.91500    0.41500    0.41500   1.00
Zn1      0.88220    0.44780    0.44780   1.00
Zn1      0.94780    0.38220    0.44780   1.00
Zn1      0.94780    0.44780    0.38220   1.00
Zn1      0.88220    0.38220    0.38220   1.00
O2       0.89150    0.43850    0.50320   1.00
O2       0.89150    0.50320    0.43850   1.00
O2       0.82680    0.43850    0.43850   1.00
O2       0.93850    0.39150    0.50320   1.00
O2       1.00320    0.39150    0.43850   1.00
O2       0.93850    0.32680    0.43850   1.00
O2       0.93850    0.50320    0.39150   1.00
O2       1.00320    0.43850    0.39150   1.00
O2       0.93850    0.43850    0.32680   1.00
O2       0.82680    0.39150    0.39150   1.00
O2       0.89150    0.32680    0.39150   1.00
O2       0.89150    0.39150    0.32680   1.00
C1       0.91500    0.41500    0.52020   1.00
C1       0.91500    0.52020    0.41500   1.00
C1       0.80980    0.41500    0.41500   1.00
C1       1.02020    0.41500    0.41500   1.00
C1       0.91500    0.30980    0.41500   1.00
C1       0.91500    0.41500    0.30980   1.00
O1       0.41500    0.41500    0.41500   1.00
Zn1      0.44780    0.38220    0.38220   1.00
Zn1      0.38220    0.44780    0.38220   1.00
Zn1      0.38220    0.38220    0.44780   1.00
Zn1      0.44780    0.44780    0.44780   1.00
O2       0.43850    0.39150    0.32680   1.00
O2       0.43850    0.32680    0.39150   1.00
O2       0.50320    0.39150    0.39150   1.00
O2       0.39150    0.43850    0.32680   1.00
O2       0.32680    0.43850    0.39150   1.00
O2       0.39150    0.50320    0.39150   1.00
O2       0.39150    0.32680    0.43850   1.00
O2       0.32680    0.39150    0.43850   1.00
O2       0.39150    0.39150    0.50320   1.00
O2       0.50320    0.43850    0.43850   1.00
O2       0.43850    0.50320    0.43850   1.00
O2       0.43850    0.43850    0.50320   1.00
C1       0.41500    0.41500    0.30980   1.00
C1       0.41500    0.30980    0.41500   1.00
C1       0.52020    0.41500    0.41500   1.00
C1       0.30980    0.41500    0.41500   1.00
C1       0.41500    0.52020    0.41500   1.00
C1       0.41500    0.41500    0.52020   1.00
O1       0.91500    0.91500    0.41500   1.00
Zn1      0.94780    0.88220    0.38220   1.00
Zn1      0.88220    0.94780    0.38220   1.00
Zn1      0.88220    0.88220    0.44780   1.00
Zn1      0.94780    0.94780    0.44780   1.00
O2       0.93850    0.89150    0.32680   1.00
O2       0.93850    0.82680    0.39150   1.00
O2       1.00320    0.89150    0.39150   1.00
O2       0.89150    0.93850    0.32680   1.00
O2       0.82680    0.93850    0.39150   1.00
O2       0.89150    1.00320    0.39150   1.00
O2       0.89150    0.82680    0.43850   1.00
O2       0.82680    0.89150    0.43850   1.00
O2       0.89150    0.89150    0.50320   1.00
O2       1.00320    0.93850    0.43850   1.00
O2       0.93850    1.00320    0.43850   1.00
O2       0.93850    0.93850    0.50320   1.00
C1       0.91500    0.91500    0.30980   1.00
C1       0.91500    0.80980    0.41500   1.00
C1       1.02020    0.91500    0.41500   1.00
C1       0.80980    0.91500    0.41500   1.00
C1       0.91500    1.02020    0.41500   1.00
C1       0.91500    0.91500    0.52020   1.00
O1       0.91500    0.41500    0.91500   1.00
Zn1      0.94780    0.38220    0.88220   1.00
Zn1      0.88220    0.44780    0.88220   1.00
Zn1      0.88220    0.38220    0.94780   1.00
Zn1      0.94780    0.44780    0.94780   1.00
O2       0.93850    0.39150    0.82680   1.00
O2       0.93850    0.32680    0.89150   1.00
O2       1.00320    0.39150    0.89150   1.00
O2       0.89150    0.43850    0.82680   1.00
O2       0.82680    0.43850    0.89150   1.00
O2       0.89150    0.50320    0.89150   1.00
O2       0.89150    0.32680    0.93850   1.00
O2       0.82680    0.39150    0.93850   1.00
O2       0.89150    0.39150    1.00320   1.00
O2       1.00320    0.43850    0.93850   1.00
O2       0.93850    0.50320    0.93850   1.00
O2       0.93850    0.43850    1.00320   1.00
C1       0.91500    0.41500    0.80980   1.00
C1       0.91500    0.30980    0.91500   1.00
C1       1.02020    0.41500    0.91500   1.00
C1       0.80980    0.41500    0.91500   1.00
C1       0.91500    0.52020    0.91500   1.00
C1       0.91500    0.41500    1.02020   1.00
O1       0.41500    0.91500    0.91500   1.00
Zn1      0.44780    0.88220    0.88220   1.00
Zn1      0.38220    0.94780    0.88220   1.00
Zn1      0.38220    0.88220    0.94780   1.00
Zn1      0.44780    0.94780    0.94780   1.00
O2       0.43850    0.89150    0.82680   1.00
O2       0.43850    0.82680    0.89150   1.00
O2       0.50320    0.89150    0.89150   1.00
O2       0.39150    0.93850    0.82680   1.00
O2       0.32680    0.93850    0.89150   1.00
O2       0.39150    1.00320    0.89150   1.00
O2       0.39150    0.82680    0.93850   1.00
O2       0.32680    0.89150    0.93850   1.00
O2       0.39150    0.89150    1.00320   1.00
O2       0.50320    0.93850    0.93850   1.00
O2       0.43850    1.00320    0.93850   1.00
O2       0.43850    0.93850    1.00320   1.00
C1       0.41500    0.91500    0.80980   1.00
C1       0.41500    0.80980    0.91500   1.00
C1       0.52020    0.91500    0.91500   1.00
C1       0.30980    0.91500    0.91500   1.00
C1       0.41500    1.02020    0.91500   1.00
C1       0.41500    0.91500    1.02020   1.00
C4       0.75060    0.74950    0.97917   1.00
C4       0.74940    0.75050    1.02083   1.00
C3       0.76210    0.71565    0.95846   1.00
C3       0.73606    0.71847    1.04321   1.00
C3       0.73938    0.78216    0.95643   1.00
C3       0.76256    0.78352    1.04187   1.00
C2       0.75110    0.74715    0.89487   1.00
C2       0.74893    0.75253    1.10514   1.00
C3       0.76237    0.71459    0.91715   1.00
C3       0.73580    0.71957    1.08449   1.00
C3       0.73967    0.78093    0.91514   1.00
C3a      0.76235    0.78474    1.08328   1.00
H1       0.77132    0.68989    0.97425   1.00
H1       0.72529    0.69254    1.02875   1.00
H1       0.77144    0.68818    0.90240   1.00
H1       0.72519    0.69452    1.10056   1.00
H1       0.73069    0.80644    0.89882   1.00
C5       0.77699    0.82072    1.10380   1.00
H1       0.77339    0.80870    1.02622   1.00
H1       0.72954    0.80864    0.97059   1.00
H2       0.77437    0.81765    1.13599   1.00
H2       0.80850    0.82438    1.09705   1.00
N1       0.75503    0.85511    1.09125   1.00
C6       0.71655    0.86114    1.09644   1.00
C6       0.76957    0.88666    1.07288   1.00
C6       0.70629    0.89686    1.08102   1.00
C6       0.74001    0.91309    1.06604   1.00
H3       0.69694    0.84071    1.11049   1.00
H3       0.79989    0.89040    1.06484   1.00
H3       0.67745    0.90966    1.08076   1.00
H3       0.74274    0.94110    1.05180   1.00
C4       0.74950    0.97917    0.75060   1.00
C4       0.75050    1.02083    0.74940   1.00
C3       0.71565    0.95846    0.76210   1.00
C3       0.71847    1.04321    0.73606   1.00
C3       0.78216    0.95643    0.73938   1.00
C3       0.78352    1.04187    0.76256   1.00
C2       0.74715    0.89487    0.75110   1.00
C2       0.75253    1.10514    0.74893   1.00
C3       0.71459    0.91715    0.76237   1.00
C3       0.71957    1.08449    0.73580   1.00
C3       0.78093    0.91514    0.73967   1.00
C3a      0.78474    1.08328    0.76235   1.00
H1       0.68989    0.97425    0.77132   1.00
H1       0.69254    1.02875    0.72529   1.00
H1       0.68818    0.90240    0.77144   1.00
H1       0.69452    1.10056    0.72519   1.00
H1       0.80644    0.89882    0.73069   1.00
C5       0.82072    1.10380    0.77699   1.00
H1       0.80870    1.02622    0.77339   1.00
H1       0.80864    0.97059    0.72954   1.00
H2       0.81765    1.13599    0.77437   1.00
H2       0.82438    1.09705    0.80850   1.00
N1       0.85511    1.09125    0.75503   1.00
C6       0.86114    1.09644    0.71655   1.00
C6       0.88666    1.07288    0.76957   1.00
C6       0.89686    1.08102    0.70629   1.00
C6       0.91309    1.06604    0.74001   1.00
H3       0.84071    1.11049    0.69694   1.00
H3       0.89040    1.06484    0.79989   1.00
H3       0.90966    1.08076    0.67745   1.00
H3       0.94110    1.05180    0.74274   1.00
C4       0.52083    0.75060    0.75050   1.00
C4       0.47917    0.74940    0.74950   1.00
C3       0.54154    0.76210    0.78435   1.00
C3       0.45679    0.73606    0.78153   1.00
C3       0.54357    0.73938    0.71784   1.00
C3       0.45813    0.76256    0.71648   1.00
C2       0.60513    0.75110    0.75285   1.00
C2       0.39486    0.74893    0.74747   1.00
C3       0.58285    0.76237    0.78541   1.00
C3       0.41551    0.73580    0.78043   1.00
C3       0.58486    0.73967    0.71907   1.00
C3a      0.41672    0.76235    0.71526   1.00
H1       0.52575    0.77132    0.81011   1.00
H1       0.47125    0.72529    0.80746   1.00
H1       0.59760    0.77144    0.81182   1.00
H1       0.39944    0.72519    0.80548   1.00
H1       0.60118    0.73069    0.69356   1.00
C5       0.39620    0.77699    0.67928   1.00
H1       0.47378    0.77339    0.69130   1.00
H1       0.52941    0.72954    0.69136   1.00
H2       0.36401    0.77437    0.68235   1.00
H2       0.40295    0.80850    0.67562   1.00
N1       0.40875    0.75503    0.64489   1.00
C6       0.40356    0.71655    0.63886   1.00
C6       0.42712    0.76957    0.61334   1.00
C6       0.41898    0.70629    0.60314   1.00
C6       0.43396    0.74001    0.58691   1.00
H3       0.38951    0.69694    0.65929   1.00
H3       0.43516    0.79989    0.60960   1.00
H3       0.41924    0.67745    0.59034   1.00
H3       0.44820    0.74274    0.55890   1.00
C4       0.97917    0.75060    0.74950   1.00
C4       1.02083    0.74940    0.75050   1.00
C3       0.95846    0.76210    0.71565   1.00
C3       1.04321    0.73606    0.71847   1.00
C3       0.95643    0.73938    0.78216   1.00
C3       1.04187    0.76256    0.78352   1.00
C2       0.89487    0.75110    0.74715   1.00
C2       1.10514    0.74893    0.75253   1.00
C3       0.91715    0.76237    0.71459   1.00
C3       1.08449    0.73580    0.71957   1.00
C3       0.91514    0.73967    0.78093   1.00
C3a      1.08328    0.76235    0.78474   1.00
H1       0.97425    0.77132    0.68989   1.00
H1       1.02875    0.72529    0.69254   1.00
H1       0.90240    0.77144    0.68818   1.00
H1       1.10056    0.72519    0.69452   1.00
H1       0.89882    0.73069    0.80644   1.00
C5       1.10380    0.77699    0.82072   1.00
H1       1.02622    0.77339    0.80870   1.00
H1       0.97059    0.72954    0.80864   1.00
H2       1.13599    0.77437    0.81765   1.00
H2       1.09705    0.80850    0.82438   1.00
N1       1.09125    0.75503    0.85511   1.00
C6       1.09644    0.71655    0.86114   1.00
C6       1.07288    0.76957    0.88666   1.00
C6       1.08102    0.70629    0.89686   1.00
C6       1.06604    0.74001    0.91309   1.00
H3       1.11049    0.69694    0.84071   1.00
H3       1.06484    0.79989    0.89040   1.00
H3       1.08076    0.67745    0.90966   1.00
H3       1.05180    0.74274    0.94110   1.00
C4       0.75050    0.52083    0.75060   1.00
C4       0.74950    0.47917    0.74940   1.00
C3       0.78435    0.54154    0.76210   1.00
C3       0.78153    0.45679    0.73606   1.00
C3       0.71784    0.54357    0.73938   1.00
C3       0.71648    0.45813    0.76256   1.00
C2       0.75285    0.60513    0.75110   1.00
C2       0.74747    0.39486    0.74893   1.00
C3       0.78541    0.58285    0.76237   1.00
C3       0.78043    0.41551    0.73580   1.00
C3       0.71907    0.58486    0.73967   1.00
C3a      0.71526    0.41672    0.76235   1.00
H1       0.81011    0.52575    0.77132   1.00
H1       0.80746    0.47125    0.72529   1.00
H1       0.81182    0.59760    0.77144   1.00
H1       0.80548    0.39944    0.72519   1.00
H1       0.69356    0.60118    0.73069   1.00
C5       0.67928    0.39620    0.77699   1.00
H1       0.69130    0.47378    0.77339   1.00
H1       0.69136    0.52941    0.72954   1.00
H2       0.68235    0.36401    0.77437   1.00
H2       0.67562    0.40295    0.80850   1.00
N1       0.64489    0.40875    0.75503   1.00
C6       0.63886    0.40356    0.71655   1.00
C6       0.61334    0.42712    0.76957   1.00
C6       0.60314    0.41898    0.70629   1.00
C6       0.58691    0.43396    0.74001   1.00
H3       0.65929    0.38951    0.69694   1.00
H3       0.60960    0.43516    0.79989   1.00
H3       0.59034    0.41924    0.67745   1.00
H3       0.55890    0.44820    0.74274   1.00
C4       0.75060    0.75050    0.52083   1.00
C4       0.74940    0.74950    0.47917   1.00
C3       0.76210    0.78435    0.54154   1.00
C3       0.73606    0.78153    0.45679   1.00
C3       0.73938    0.71784    0.54357   1.00
C3       0.76256    0.71648    0.45813   1.00
C2       0.75110    0.75285    0.60513   1.00
C2       0.74893    0.74747    0.39486   1.00
C3       0.76237    0.78541    0.58285   1.00
C3       0.73580    0.78043    0.41551   1.00
C3       0.73967    0.71907    0.58486   1.00
C3a      0.76235    0.71526    0.41672   1.00
H1       0.77132    0.81011    0.52575   1.00
H1       0.72529    0.80746    0.47125   1.00
H1       0.77144    0.81182    0.59760   1.00
H1       0.72519    0.80548    0.39944   1.00
H1       0.73069    0.69356    0.60118   1.00
C5       0.77699    0.67928    0.39620   1.00
H1       0.77339    0.69130    0.47378   1.00
H1       0.72954    0.69136    0.52941   1.00
H2       0.77437    0.68235    0.36401   1.00
H2       0.80850    0.67562    0.40295   1.00
N1       0.75503    0.64489    0.40875   1.00
C6       0.71655    0.63886    0.40356   1.00
C6       0.76957    0.61334    0.42712   1.00
C6       0.70629    0.60314    0.41898   1.00
C6       0.74001    0.58691    0.43396   1.00
H3       0.69694    0.65929    0.38951   1.00
H3       0.79989    0.60960    0.43516   1.00
H3       0.67745    0.59034    0.41924   1.00
H3       0.74274    0.55890    0.44820   1.00
C4       0.25060    0.24950    0.97917   1.00
C4       0.24940    0.25050    1.02083   1.00
C3       0.26210    0.21565    0.95846   1.00
C3       0.23606    0.21847    1.04321   1.00
C3       0.23938    0.28216    0.95643   1.00
C3       0.26256    0.28352    1.04187   1.00
C2       0.25110    0.24715    0.89487   1.00
C2       0.24893    0.25253    1.10514   1.00
C3       0.26237    0.21459    0.91715   1.00
C3       0.23580    0.21957    1.08449   1.00
C3       0.23967    0.28093    0.91514   1.00
C3a      0.26235    0.28474    1.08328   1.00
H1       0.27132    0.18989    0.97425   1.00
H1       0.22529    0.19254    1.02875   1.00
H1       0.27144    0.18818    0.90240   1.00
H1       0.22519    0.19452    1.10056   1.00
H1       0.23069    0.30644    0.89882   1.00
C5       0.27699    0.32072    1.10380   1.00
H1       0.27339    0.30870    1.02622   1.00
H1       0.22954    0.30864    0.97059   1.00
H2       0.27437    0.31765    1.13599   1.00
H2       0.30850    0.32438    1.09705   1.00
N1       0.25503    0.35511    1.09125   1.00
C6       0.21655    0.36114    1.09644   1.00
C6       0.26957    0.38666    1.07288   1.00
C6       0.20629    0.39686    1.08102   1.00
C6       0.24001    0.41309    1.06604   1.00
H3       0.19694    0.34071    1.11049   1.00
H3       0.29989    0.39040    1.06484   1.00
H3       0.17745    0.40966    1.08076   1.00
H3       0.24274    0.44110    1.05180   1.00
C4       0.24950    0.47917    0.75060   1.00
C4       0.25050    0.52083    0.74940   1.00
C3       0.21565    0.45846    0.76210   1.00
C3       0.21847    0.54321    0.73606   1.00
C3       0.28216    0.45643    0.73938   1.00
C3       0.28352    0.54187    0.76256   1.00
C2       0.24715    0.39487    0.75110   1.00
C2       0.25253    0.60514    0.74893   1.00
C3       0.21459    0.41715    0.76237   1.00
C3       0.21957    0.58449    0.73580   1.00
C3       0.28093    0.41514    0.73967   1.00
C3a      0.28474    0.58328    0.76235   1.00
H1       0.18989    0.47425    0.77132   1.00
H1       0.19254    0.52875    0.72529   1.00
H1       0.18818    0.40240    0.77144   1.00
H1       0.19452    0.60056    0.72519   1.00
H1       0.30644    0.39882    0.73069   1.00
C5       0.32072    0.60380    0.77699   1.00
H1       0.30870    0.52622    0.77339   1.00
H1       0.30864    0.47059    0.72954   1.00
H2       0.31765    0.63599    0.77437   1.00
H2       0.32438    0.59705    0.80850   1.00
N1       0.35511    0.59125    0.75503   1.00
C6       0.36114    0.59644    0.71655   1.00
C6       0.38666    0.57288    0.76957   1.00
C6       0.39686    0.58102    0.70629   1.00
C6       0.41309    0.56604    0.74001   1.00
H3       0.34071    0.61049    0.69694   1.00
H3       0.39040    0.56484    0.79989   1.00
H3       0.40966    0.58076    0.67745   1.00
H3       0.44110    0.55180    0.74274   1.00
C4       0.02083    0.25060    0.75050   1.00
C4       -0.02083   0.24940    0.74950   1.00
C3       0.04154    0.26210    0.78435   1.00
C3       -0.04321   0.23606    0.78153   1.00
C3       0.04357    0.23938    0.71784   1.00
C3       -0.04187   0.26256    0.71648   1.00
C2       0.10513    0.25110    0.75285   1.00
C2       -0.10514   0.24893    0.74747   1.00
C3       0.08285    0.26237    0.78541   1.00
C3       -0.08449   0.23580    0.78043   1.00
C3       0.08486    0.23967    0.71907   1.00
C3a      -0.08328   0.26235    0.71526   1.00
H1       0.02575    0.27132    0.81011   1.00
H1       -0.02875   0.22529    0.80746   1.00
H1       0.09760    0.27144    0.81182   1.00
H1       -0.10056   0.22519    0.80548   1.00
H1       0.10118    0.23069    0.69356   1.00
C5       -0.10380   0.27699    0.67928   1.00
H1       -0.02622   0.27339    0.69130   1.00
H1       0.02941    0.22954    0.69136   1.00
H2       -0.13599   0.27437    0.68235   1.00
H2       -0.09705   0.30850    0.67562   1.00
N1       -0.09125   0.25503    0.64489   1.00
C6       -0.09644   0.21655    0.63886   1.00
C6       -0.07288   0.26957    0.61334   1.00
C6       -0.08102   0.20629    0.60314   1.00
C6       -0.06604   0.24001    0.58691   1.00
H3       -0.11049   0.19694    0.65929   1.00
H3       -0.06484   0.29989    0.60960   1.00
H3       -0.08076   0.17745    0.59034   1.00
H3       -0.05180   0.24274    0.55890   1.00
C4       0.47917    0.25060    0.74950   1.00
C4       0.52083    0.24940    0.75050   1.00
C3       0.45846    0.26210    0.71565   1.00
C3       0.54321    0.23606    0.71847   1.00
C3       0.45643    0.23938    0.78216   1.00
C3       0.54187    0.26256    0.78352   1.00
C2       0.39487    0.25110    0.74715   1.00
C2       0.60514    0.24893    0.75253   1.00
C3       0.41715    0.26237    0.71459   1.00
C3       0.58449    0.23580    0.71957   1.00
C3       0.41514    0.23967    0.78093   1.00
C3a      0.58328    0.26235    0.78474   1.00
H1       0.47425    0.27132    0.68989   1.00
H1       0.52875    0.22529    0.69254   1.00
H1       0.40240    0.27144    0.68818   1.00
H1       0.60056    0.22519    0.69452   1.00
H1       0.39882    0.23069    0.80644   1.00
C5       0.60380    0.27699    0.82072   1.00
H1       0.52622    0.27339    0.80870   1.00
H1       0.47059    0.22954    0.80864   1.00
H2       0.63599    0.27437    0.81765   1.00
H2       0.59705    0.30850    0.82438   1.00
N1       0.59125    0.25503    0.85511   1.00
C6       0.59644    0.21655    0.86114   1.00
C6       0.57288    0.26957    0.88666   1.00
C6       0.58102    0.20629    0.89686   1.00
C6       0.56604    0.24001    0.91309   1.00
H3       0.61049    0.19694    0.84071   1.00
H3       0.56484    0.29989    0.89040   1.00
H3       0.58076    0.17745    0.90966   1.00
H3       0.55180    0.24274    0.94110   1.00
C4       0.25050    0.02083    0.75060   1.00
C4       0.24950    -0.02083   0.74940   1.00
C3       0.28435    0.04154    0.76210   1.00
C3       0.28153    -0.04321   0.73606   1.00
C3       0.21784    0.04357    0.73938   1.00
C3       0.21648    -0.04187   0.76256   1.00
C2       0.25285    0.10513    0.75110   1.00
C2       0.24747    -0.10514   0.74893   1.00
C3       0.28541    0.08285    0.76237   1.00
C3       0.28043    -0.08449   0.73580   1.00
C3       0.21907    0.08486    0.73967   1.00
C3a      0.21526    -0.08328   0.76235   1.00
H1       0.31011    0.02575    0.77132   1.00
H1       0.30746    -0.02875   0.72529   1.00
H1       0.31182    0.09760    0.77144   1.00
H1       0.30548    -0.10056   0.72519   1.00
H1       0.19356    0.10118    0.73069   1.00
C5       0.17928    -0.10380   0.77699   1.00
H1       0.19130    -0.02622   0.77339   1.00
H1       0.19136    0.02941    0.72954   1.00
H2       0.18235    -0.13599   0.77437   1.00
H2       0.17562    -0.09705   0.80850   1.00
N1       0.14489    -0.09125   0.75503   1.00
C6       0.13886    -0.09644   0.71655   1.00
C6       0.11334    -0.07288   0.76957   1.00
C6       0.10314    -0.08102   0.70629   1.00
C6       0.08691    -0.06604   0.74001   1.00
H3       0.15929    -0.11049   0.69694   1.00
H3       0.10960    -0.06484   0.79989   1.00
H3       0.09034    -0.08076   0.67745   1.00
H3       0.05890    -0.05180   0.74274   1.00
C4       0.25060    0.25050    0.52083   1.00
C4       0.24940    0.24950    0.47917   1.00
C3       0.26210    0.28435    0.54154   1.00
C3       0.23606    0.28153    0.45679   1.00
C3       0.23938    0.21784    0.54357   1.00
C3       0.26256    0.21648    0.45813   1.00
C2       0.25110    0.25285    0.60513   1.00
C2       0.24893    0.24747    0.39486   1.00
C3       0.26237    0.28541    0.58285   1.00
C3       0.23580    0.28043    0.41551   1.00
C3       0.23967    0.21907    0.58486   1.00
C3a      0.26235    0.21526    0.41672   1.00
H1       0.27132    0.31011    0.52575   1.00
H1       0.22529    0.30746    0.47125   1.00
H1       0.27144    0.31182    0.59760   1.00
H1       0.22519    0.30548    0.39944   1.00
H1       0.23069    0.19356    0.60118   1.00
C5       0.27699    0.17928    0.39620   1.00
H1       0.27339    0.19130    0.47378   1.00
H1       0.22954    0.19136    0.52941   1.00
H2       0.27437    0.18235    0.36401   1.00
H2       0.30850    0.17562    0.40295   1.00
N1       0.25503    0.14489    0.40875   1.00
C6       0.21655    0.13886    0.40356   1.00
C6       0.26957    0.11334    0.42712   1.00
C6       0.20629    0.10314    0.41898   1.00
C6       0.24001    0.08691    0.43396   1.00
H3       0.19694    0.15929    0.38951   1.00
H3       0.29989    0.10960    0.43516   1.00
H3       0.17745    0.09034    0.41924   1.00
H3       0.24274    0.05890    0.44820   1.00
C4       0.25060    0.74950    0.47917   1.00
C4       0.24940    0.75050    0.52083   1.00
C3       0.26210    0.71565    0.45846   1.00
C3       0.23606    0.71847    0.54321   1.00
C3       0.23938    0.78216    0.45643   1.00
C3       0.26256    0.78352    0.54187   1.00
C2       0.25110    0.74715    0.39487   1.00
C2       0.24893    0.75253    0.60514   1.00
C3       0.26237    0.71459    0.41715   1.00
C3       0.23580    0.71957    0.58449   1.00
C3       0.23967    0.78093    0.41514   1.00
C3a      0.26235    0.78474    0.58328   1.00
H1       0.27132    0.68989    0.47425   1.00
H1       0.22529    0.69254    0.52875   1.00
H1       0.27144    0.68818    0.40240   1.00
H1       0.22519    0.69452    0.60056   1.00
H1       0.23069    0.80644    0.39882   1.00
C5       0.27699    0.82072    0.60380   1.00
H1       0.27339    0.80870    0.52622   1.00
H1       0.22954    0.80864    0.47059   1.00
H2       0.27437    0.81765    0.63599   1.00
H2       0.30850    0.82438    0.59705   1.00
N1       0.25503    0.85511    0.59125   1.00
C6       0.21655    0.86114    0.59644   1.00
C6       0.26957    0.88666    0.57288   1.00
C6       0.20629    0.89686    0.58102   1.00
C6       0.24001    0.91309    0.56604   1.00
H3       0.19694    0.84071    0.61049   1.00
H3       0.29989    0.89040    0.56484   1.00
H3       0.17745    0.90966    0.58076   1.00
H3       0.24274    0.94110    0.55180   1.00
C4       0.24950    0.97917    0.25060   1.00
C4       0.25050    1.02083    0.24940   1.00
C3       0.21565    0.95846    0.26210   1.00
C3       0.21847    1.04321    0.23606   1.00
C3       0.28216    0.95643    0.23938   1.00
C3       0.28352    1.04187    0.26256   1.00
C2       0.24715    0.89487    0.25110   1.00
C2       0.25253    1.10514    0.24893   1.00
C3       0.21459    0.91715    0.26237   1.00
C3       0.21957    1.08449    0.23580   1.00
C3       0.28093    0.91514    0.23967   1.00
C3a      0.28474    1.08328    0.26235   1.00
H1       0.18989    0.97425    0.27132   1.00
H1       0.19254    1.02875    0.22529   1.00
H1       0.18818    0.90240    0.27144   1.00
H1       0.19452    1.10056    0.22519   1.00
H1       0.30644    0.89882    0.23069   1.00
C5       0.32072    1.10380    0.27699   1.00
H1       0.30870    1.02622    0.27339   1.00
H1       0.30864    0.97059    0.22954   1.00
H2       0.31765    1.13599    0.27437   1.00
H2       0.32438    1.09705    0.30850   1.00
N1       0.35511    1.09125    0.25503   1.00
C6       0.36114    1.09644    0.21655   1.00
C6       0.38666    1.07288    0.26957   1.00
C6       0.39686    1.08102    0.20629   1.00
C6       0.41309    1.06604    0.24001   1.00
H3       0.34071    1.11049    0.19694   1.00
H3       0.39040    1.06484    0.29989   1.00
H3       0.40966    1.08076    0.17745   1.00
H3       0.44110    1.05180    0.24274   1.00
C4       0.02083    0.75060    0.25050   1.00
C4       -0.02083   0.74940    0.24950   1.00
C3       0.04154    0.76210    0.28435   1.00
C3       -0.04321   0.73606    0.28153   1.00
C3       0.04357    0.73938    0.21784   1.00
C3       -0.04187   0.76256    0.21648   1.00
C2       0.10513    0.75110    0.25285   1.00
C2       -0.10514   0.74893    0.24747   1.00
C3       0.08285    0.76237    0.28541   1.00
C3       -0.08449   0.73580    0.28043   1.00
C3       0.08486    0.73967    0.21907   1.00
C3a      -0.08328   0.76235    0.21526   1.00
H1       0.02575    0.77132    0.31011   1.00
H1       -0.02875   0.72529    0.30746   1.00
H1       0.09760    0.77144    0.31182   1.00
H1       -0.10056   0.72519    0.30548   1.00
H1       0.10118    0.73069    0.19356   1.00
C5       -0.10380   0.77699    0.17928   1.00
H1       -0.02622   0.77339    0.19130   1.00
H1       0.02941    0.72954    0.19136   1.00
H2       -0.13599   0.77437    0.18235   1.00
H2       -0.09705   0.80850    0.17562   1.00
N1       -0.09125   0.75503    0.14489   1.00
C6       -0.09644   0.71655    0.13886   1.00
C6       -0.07288   0.76957    0.11334   1.00
C6       -0.08102   0.70629    0.10314   1.00
C6       -0.06604   0.74001    0.08691   1.00
H3       -0.11049   0.69694    0.15929   1.00
H3       -0.06484   0.79989    0.10960   1.00
H3       -0.08076   0.67745    0.09034   1.00
H3       -0.05180   0.74274    0.05890   1.00
C4       0.47917    0.75060    0.24950   1.00
C4       0.52083    0.74940    0.25050   1.00
C3       0.45846    0.76210    0.21565   1.00
C3       0.54321    0.73606    0.21847   1.00
C3       0.45643    0.73938    0.28216   1.00
C3       0.54187    0.76256    0.28352   1.00
C2       0.39487    0.75110    0.24715   1.00
C2       0.60514    0.74893    0.25253   1.00
C3       0.41715    0.76237    0.21459   1.00
C3       0.58449    0.73580    0.21957   1.00
C3       0.41514    0.73967    0.28093   1.00
C3a      0.58328    0.76235    0.28474   1.00
H1       0.47425    0.77132    0.18989   1.00
H1       0.52875    0.72529    0.19254   1.00
H1       0.40240    0.77144    0.18818   1.00
H1       0.60056    0.72519    0.19452   1.00
H1       0.39882    0.73069    0.30644   1.00
C5       0.60380    0.77699    0.32072   1.00
H1       0.52622    0.77339    0.30870   1.00
H1       0.47059    0.72954    0.30864   1.00
H2       0.63599    0.77437    0.31765   1.00
H2       0.59705    0.80850    0.32438   1.00
N1       0.59125    0.75503    0.35511   1.00
C6       0.59644    0.71655    0.36114   1.00
C6       0.57288    0.76957    0.38666   1.00
C6       0.58102    0.70629    0.39686   1.00
C6       0.56604    0.74001    0.41309   1.00
H3       0.61049    0.69694    0.34071   1.00
H3       0.56484    0.79989    0.39040   1.00
H3       0.58076    0.67745    0.40966   1.00
H3       0.55180    0.74274    0.44110   1.00
C4       0.25050    0.52083    0.25060   1.00
C4       0.24950    0.47917    0.24940   1.00
C3       0.28435    0.54154    0.26210   1.00
C3       0.28153    0.45679    0.23606   1.00
C3       0.21784    0.54357    0.23938   1.00
C3       0.21648    0.45813    0.26256   1.00
C2       0.25285    0.60513    0.25110   1.00
C2       0.24747    0.39486    0.24893   1.00
C3       0.28541    0.58285    0.26237   1.00
C3       0.28043    0.41551    0.23580   1.00
C3       0.21907    0.58486    0.23967   1.00
C3a      0.21526    0.41672    0.26235   1.00
H1       0.31011    0.52575    0.27132   1.00
H1       0.30746    0.47125    0.22529   1.00
H1       0.31182    0.59760    0.27144   1.00
H1       0.30548    0.39944    0.22519   1.00
H1       0.19356    0.60118    0.23069   1.00
C5       0.17928    0.39620    0.27699   1.00
H1       0.19130    0.47378    0.27339   1.00
H1       0.19136    0.52941    0.22954   1.00
H2       0.18235    0.36401    0.27437   1.00
H2       0.17562    0.40295    0.30850   1.00
N1       0.14489    0.40875    0.25503   1.00
C6       0.13886    0.40356    0.21655   1.00
C6       0.11334    0.42712    0.26957   1.00
C6       0.10314    0.41898    0.20629   1.00
C6       0.08691    0.43396    0.24001   1.00
H3       0.15929    0.38951    0.19694   1.00
H3       0.10960    0.43516    0.29989   1.00
H3       0.09034    0.41924    0.17745   1.00
H3       0.05890    0.44820    0.24274   1.00
C4       0.25060    0.75050    0.02083   1.00
C4       0.24940    0.74950    -0.02083   1.00
C3       0.26210    0.78435    0.04154   1.00
C3       0.23606    0.78153    -0.04321   1.00
C3       0.23938    0.71784    0.04357   1.00
C3       0.26256    0.71648    -0.04187   1.00
C2       0.25110    0.75285    0.10513   1.00
C2       0.24893    0.74747    -0.10514   1.00
C3       0.26237    0.78541    0.08285   1.00
C3       0.23580    0.78043    -0.08449   1.00
C3       0.23967    0.71907    0.08486   1.00
C3a      0.26235    0.71526    -0.08328   1.00
H1       0.27132    0.81011    0.02575   1.00
H1       0.22529    0.80746    -0.02875   1.00
H1       0.27144    0.81182    0.09760   1.00
H1       0.22519    0.80548    -0.10056   1.00
H1       0.23069    0.69356    0.10118   1.00
C5       0.27699    0.67928    -0.10380   1.00
H1       0.27339    0.69130    -0.02622   1.00
H1       0.22954    0.69136    0.02941   1.00
H2       0.27437    0.68235    -0.13599   1.00
H2       0.30850    0.67562    -0.09705   1.00
N1       0.25503    0.64489    -0.09125   1.00
C6       0.21655    0.63886    -0.09644   1.00
C6       0.26957    0.61334    -0.07288   1.00
C6       0.20629    0.60314    -0.08102   1.00
C6       0.24001    0.58691    -0.06604   1.00
H3       0.19694    0.65929    -0.11049   1.00
H3       0.29989    0.60960    -0.06484   1.00
H3       0.17745    0.59034    -0.08076   1.00
H3       0.24274    0.55890    -0.05180   1.00
C4       0.75060    0.24950    0.47917   1.00
C4       0.74940    0.25050    0.52083   1.00
C3       0.76210    0.21565    0.45846   1.00
C3       0.73606    0.21847    0.54321   1.00
C3       0.73938    0.28216    0.45643   1.00
C3       0.76256    0.28352    0.54187   1.00
C2       0.75110    0.24715    0.39487   1.00
C2       0.74893    0.25253    0.60514   1.00
C3       0.76237    0.21459    0.41715   1.00
C3       0.73580    0.21957    0.58449   1.00
C3       0.73967    0.28093    0.41514   1.00
C3a      0.76235    0.28474    0.58328   1.00
H1       0.77132    0.18989    0.47425   1.00
H1       0.72529    0.19254    0.52875   1.00
H1       0.77144    0.18818    0.40240   1.00
H1       0.72519    0.19452    0.60056   1.00
H1       0.73069    0.30644    0.39882   1.00
C5       0.77699    0.32072    0.60380   1.00
H1       0.77339    0.30870    0.52622   1.00
H1       0.72954    0.30864    0.47059   1.00
H2       0.77437    0.31765    0.63599   1.00
H2       0.80850    0.32438    0.59705   1.00
N1       0.75503    0.35511    0.59125   1.00
C6       0.71655    0.36114    0.59644   1.00
C6       0.76957    0.38666    0.57288   1.00
C6       0.70629    0.39686    0.58102   1.00
C6       0.74001    0.41309    0.56604   1.00
H3       0.69694    0.34071    0.61049   1.00
H3       0.79989    0.39040    0.56484   1.00
H3       0.67745    0.40966    0.58076   1.00
H3       0.74274    0.44110    0.55180   1.00
C4       0.74950    0.47917    0.25060   1.00
C4       0.75050    0.52083    0.24940   1.00
C3       0.71565    0.45846    0.26210   1.00
C3       0.71847    0.54321    0.23606   1.00
C3       0.78216    0.45643    0.23938   1.00
C3       0.78352    0.54187    0.26256   1.00
C2       0.74715    0.39487    0.25110   1.00
C2       0.75253    0.60514    0.24893   1.00
C3       0.71459    0.41715    0.26237   1.00
C3       0.71957    0.58449    0.23580   1.00
C3       0.78093    0.41514    0.23967   1.00
C3a      0.78474    0.58328    0.26235   1.00
H1       0.68989    0.47425    0.27132   1.00
H1       0.69254    0.52875    0.22529   1.00
H1       0.68818    0.40240    0.27144   1.00
H1       0.69452    0.60056    0.22519   1.00
H1       0.80644    0.39882    0.23069   1.00
C5       0.82072    0.60380    0.27699   1.00
H1       0.80870    0.52622    0.27339   1.00
H1       0.80864    0.47059    0.22954   1.00
H2       0.81765    0.63599    0.27437   1.00
H2       0.82438    0.59705    0.30850   1.00
N1       0.85511    0.59125    0.25503   1.00
C6       0.86114    0.59644    0.21655   1.00
C6       0.88666    0.57288    0.26957   1.00
C6       0.89686    0.58102    0.20629   1.00
C6       0.91309    0.56604    0.24001   1.00
H3       0.84071    0.61049    0.19694   1.00
H3       0.89040    0.56484    0.29989   1.00
H3       0.90966    0.58076    0.17745   1.00
H3       0.94110    0.55180    0.24274   1.00
C4       0.52083    0.25060    0.25050   1.00
C4       0.47917    0.24940    0.24950   1.00
C3       0.54154    0.26210    0.28435   1.00
C3       0.45679    0.23606    0.28153   1.00
C3       0.54357    0.23938    0.21784   1.00
C3       0.45813    0.26256    0.21648   1.00
C2       0.60513    0.25110    0.25285   1.00
C2       0.39486    0.24893    0.24747   1.00
C3       0.58285    0.26237    0.28541   1.00
C3       0.41551    0.23580    0.28043   1.00
C3       0.58486    0.23967    0.21907   1.00
C3a      0.41672    0.26235    0.21526   1.00
H1       0.52575    0.27132    0.31011   1.00
H1       0.47125    0.22529    0.30746   1.00
H1       0.59760    0.27144    0.31182   1.00
H1       0.39944    0.22519    0.30548   1.00
H1       0.60118    0.23069    0.19356   1.00
C5       0.39620    0.27699    0.17928   1.00
H1       0.47378    0.27339    0.19130   1.00
H1       0.52941    0.22954    0.19136   1.00
H2       0.36401    0.27437    0.18235   1.00
H2       0.40295    0.30850    0.17562   1.00
N1       0.40875    0.25503    0.14489   1.00
C6       0.40356    0.21655    0.13886   1.00
C6       0.42712    0.26957    0.11334   1.00
C6       0.41898    0.20629    0.10314   1.00
C6       0.43396    0.24001    0.08691   1.00
H3       0.38951    0.19694    0.15929   1.00
H3       0.43516    0.29989    0.10960   1.00
H3       0.41924    0.17745    0.09034   1.00
H3       0.44820    0.24274    0.05890   1.00
C4       0.97917    0.25060    0.24950   1.00
C4       1.02083    0.24940    0.25050   1.00
C3       0.95846    0.26210    0.21565   1.00
C3       1.04321    0.23606    0.21847   1.00
C3       0.95643    0.23938    0.28216   1.00
C3       1.04187    0.26256    0.28352   1.00
C2       0.89487    0.25110    0.24715   1.00
C2       1.10514    0.24893    0.25253   1.00
C3       0.91715    0.26237    0.21459   1.00
C3       1.08449    0.23580    0.21957   1.00
C3       0.91514    0.23967    0.28093   1.00
C3a      1.08328    0.26235    0.28474   1.00
H1       0.97425    0.27132    0.18989   1.00
H1       1.02875    0.22529    0.19254   1.00
H1       0.90240    0.27144    0.18818   1.00
H1       1.10056    0.22519    0.19452   1.00
H1       0.89882    0.23069    0.30644   1.00
C5       1.10380    0.27699    0.32072   1.00
H1       1.02622    0.27339    0.30870   1.00
H1       0.97059    0.22954    0.30864   1.00
H2       1.13599    0.27437    0.31765   1.00
H2       1.09705    0.30850    0.32438   1.00
N1       1.09125    0.25503    0.35511   1.00
C6       1.09644    0.21655    0.36114   1.00
C6       1.07288    0.26957    0.38666   1.00
C6       1.08102    0.20629    0.39686   1.00
C6       1.06604    0.24001    0.41309   1.00
H3       1.11049    0.19694    0.34071   1.00
H3       1.06484    0.29989    0.39040   1.00
H3       1.08076    0.17745    0.40966   1.00
H3       1.05180    0.24274    0.44110   1.00
C4       0.75050    0.02083    0.25060   1.00
C4       0.74950    -0.02083   0.24940   1.00
C3       0.78435    0.04154    0.26210   1.00
C3       0.78153    -0.04321   0.23606   1.00
C3       0.71784    0.04357    0.23938   1.00
C3       0.71648    -0.04187   0.26256   1.00
C2       0.75285    0.10513    0.25110   1.00
C2       0.74747    -0.10514   0.24893   1.00
C3       0.78541    0.08285    0.26237   1.00
C3       0.78043    -0.08449   0.23580   1.00
C3       0.71907    0.08486    0.23967   1.00
C3a      0.71526    -0.08328   0.26235   1.00
H1       0.81011    0.02575    0.27132   1.00
H1       0.80746    -0.02875   0.22529   1.00
H1       0.81182    0.09760    0.27144   1.00
H1       0.80548    -0.10056   0.22519   1.00
H1       0.69356    0.10118    0.23069   1.00
C5       0.67928    -0.10380   0.27699   1.00
H1       0.69130    -0.02622   0.27339   1.00
H1       0.69136    0.02941    0.22954   1.00
H2       0.68235    -0.13599   0.27437   1.00
H2       0.67562    -0.09705   0.30850   1.00
N1       0.64489    -0.09125   0.25503   1.00
C6       0.63886    -0.09644   0.21655   1.00
C6       0.61334    -0.07288   0.26957   1.00
C6       0.60314    -0.08102   0.20629   1.00
C6       0.58691    -0.06604   0.24001   1.00
H3       0.65929    -0.11049   0.19694   1.00
H3       0.60960    -0.06484   0.29989   1.00
H3       0.59034    -0.08076   0.17745   1.00
H3       0.55890    -0.05180   0.24274   1.00
C4       0.75060    0.25050    0.02083   1.00
C4       0.74940    0.24950    -0.02083   1.00
C3       0.76210    0.28435    0.04154   1.00
C3       0.73606    0.28153    -0.04321   1.00
C3       0.73938    0.21784    0.04357   1.00
C3       0.76256    0.21648    -0.04187   1.00
C2       0.75110    0.25285    0.10513   1.00
C2       0.74893    0.24747    -0.10514   1.00
C3       0.76237    0.28541    0.08285   1.00
C3       0.73580    0.28043    -0.08449   1.00
C3       0.73967    0.21907    0.08486   1.00
C3a      0.76235    0.21526    -0.08328   1.00
H1       0.77132    0.31011    0.02575   1.00
H1       0.72529    0.30746    -0.02875   1.00
H1       0.77144    0.31182    0.09760   1.00
H1       0.72519    0.30548    -0.10056   1.00
H1       0.73069    0.19356    0.10118   1.00
C5       0.77699    0.17928    -0.10380   1.00
H1       0.77339    0.19130    -0.02622   1.00
H1       0.72954    0.19136    0.02941   1.00
H2       0.77437    0.18235    -0.13599   1.00
H2       0.80850    0.17562    -0.09705   1.00
N1       0.75503    0.14489    -0.09125   1.00
C6       0.71655    0.13886    -0.09644   1.00
C6       0.76957    0.11334    -0.07288   1.00
C6       0.70629    0.10314    -0.08102   1.00
C6       0.74001    0.08691    -0.06604   1.00
H3       0.69694    0.15929    -0.11049   1.00
H3       0.79989    0.10960    -0.06484   1.00
H3       0.67745    0.09034    -0.08076   1.00
H3       0.74274    0.05890    -0.05180   1.00
C4       0.91560    0.91450    1.14417   1.00
C4       0.91440    0.91550    1.18583   1.00
C3       0.92710    0.88065    1.12346   1.00
C3       0.90106    0.88347    1.20821   1.00
C3       0.90438    0.94716    1.12143   1.00
C3       0.92756    0.94852    1.20687   1.00
C2       0.91610    0.91215    1.05987   1.00
C2       0.91393    0.91753    1.27014   1.00
C3       0.92737    0.87959    1.08215   1.00
C3       0.90080    0.88457    1.24949   1.00
C3       0.90467    0.94593    1.08014   1.00
C3a      0.92735    0.94974    1.24828   1.00
H1       0.93632    0.85489    1.13925   1.00
H1       0.89029    0.85754    1.19375   1.00
H1       0.93644    0.85318    1.06740   1.00
H1       0.89019    0.85952    1.26556   1.00
H1       0.89569    0.97144    1.06382   1.00
C5       0.94199    0.98572    1.26880   1.00
H1       0.93839    0.97370    1.19122   1.00
H1       0.89454    0.97364    1.13559   1.00
H2       0.93937    0.98265    1.30099   1.00
H2       0.97350    0.98938    1.26205   1.00
N1       0.92003    1.02011    1.25625   1.00
C6       0.88155    1.02614    1.26144   1.00
C6       0.93457    1.05166    1.23788   1.00
C6       0.87129    1.06186    1.24602   1.00
C6       0.90501    1.07809    1.23104   1.00
H3       0.86194    1.00571    1.27549   1.00
H3       0.96489    1.05540    1.22984   1.00
H3       0.84245    1.07466    1.24576   1.00
H3       0.90774    1.10610    1.21680   1.00
C4       0.91450    1.14417    0.91560   1.00
C4       0.91550    1.18583    0.91440   1.00
C3       0.88065    1.12346    0.92710   1.00
C3       0.88347    1.20821    0.90106   1.00
C3       0.94716    1.12143    0.90438   1.00
C3       0.94852    1.20687    0.92756   1.00
C2       0.91215    1.05987    0.91610   1.00
C2       0.91753    1.27014    0.91393   1.00
C3       0.87959    1.08215    0.92737   1.00
C3       0.88457    1.24949    0.90080   1.00
C3       0.94593    1.08014    0.90467   1.00
C3a      0.94974    1.24828    0.92735   1.00
H1       0.85489    1.13925    0.93632   1.00
H1       0.85754    1.19375    0.89029   1.00
H1       0.85318    1.06740    0.93644   1.00
H1       0.85952    1.26556    0.89019   1.00
H1       0.97144    1.06382    0.89569   1.00
C5       0.98572    1.26880    0.94199   1.00
H1       0.97370    1.19122    0.93839   1.00
H1       0.97364    1.13559    0.89454   1.00
H2       0.98265    1.30099    0.93937   1.00
H2       0.98938    1.26205    0.97350   1.00
N1       1.02011    1.25625    0.92003   1.00
C6       1.02614    1.26144    0.88155   1.00
C6       1.05166    1.23788    0.93457   1.00
C6       1.06186    1.24602    0.87129   1.00
C6       1.07809    1.23104    0.90501   1.00
H3       1.00571    1.27549    0.86194   1.00
H3       1.05540    1.22984    0.96489   1.00
H3       1.07466    1.24576    0.84245   1.00
H3       1.10610    1.21680    0.90774   1.00
C4       0.68583    0.91560    0.91550   1.00
C4       0.64417    0.91440    0.91450   1.00
C3       0.70654    0.92710    0.94935   1.00
C3       0.62179    0.90106    0.94653   1.00
C3       0.70857    0.90438    0.88284   1.00
C3       0.62313    0.92756    0.88148   1.00
C2       0.77013    0.91610    0.91785   1.00
C2       0.55986    0.91393    0.91247   1.00
C3       0.74785    0.92737    0.95041   1.00
C3       0.58051    0.90080    0.94543   1.00
C3       0.74986    0.90467    0.88407   1.00
C3a      0.58172    0.92735    0.88026   1.00
H1       0.69075    0.93632    0.97511   1.00
H1       0.63625    0.89029    0.97246   1.00
H1       0.76260    0.93644    0.97682   1.00
H1       0.56444    0.89019    0.97048   1.00
H1       0.76618    0.89569    0.85856   1.00
C5       0.56120    0.94199    0.84428   1.00
H1       0.63878    0.93839    0.85630   1.00
H1       0.69441    0.89454    0.85636   1.00
H2       0.52901    0.93937    0.84735   1.00
H2       0.56795    0.97350    0.84062   1.00
N1       0.57375    0.92003    0.80989   1.00
C6       0.56856    0.88155    0.80386   1.00
C6       0.59212    0.93457    0.77834   1.00
C6       0.58398    0.87129    0.76814   1.00
C6       0.59896    0.90501    0.75191   1.00
H3       0.55451    0.86194    0.82429   1.00
H3       0.60016    0.96489    0.77460   1.00
H3       0.58424    0.84245    0.75534   1.00
H3       0.61320    0.90774    0.72390   1.00
C4       1.14417    0.91560    0.91450   1.00
C4       1.18583    0.91440    0.91550   1.00
C3       1.12346    0.92710    0.88065   1.00
C3       1.20821    0.90106    0.88347   1.00
C3       1.12143    0.90438    0.94716   1.00
C3       1.20687    0.92756    0.94852   1.00
C2       1.05987    0.91610    0.91215   1.00
C2       1.27014    0.91393    0.91753   1.00
C3       1.08215    0.92737    0.87959   1.00
C3       1.24949    0.90080    0.88457   1.00
C3       1.08014    0.90467    0.94593   1.00
C3a      1.24828    0.92735    0.94974   1.00
H1       1.13925    0.93632    0.85489   1.00
H1       1.19375    0.89029    0.85754   1.00
H1       1.06740    0.93644    0.85318   1.00
H1       1.26556    0.89019    0.85952   1.00
H1       1.06382    0.89569    0.97144   1.00
C5       1.26880    0.94199    0.98572   1.00
H1       1.19122    0.93839    0.97370   1.00
H1       1.13559    0.89454    0.97364   1.00
H2       1.30099    0.93937    0.98265   1.00
H2       1.26205    0.97350    0.98938   1.00
N1       1.25625    0.92003    1.02011   1.00
C6       1.26144    0.88155    1.02614   1.00
C6       1.23788    0.93457    1.05166   1.00
C6       1.24602    0.87129    1.06186   1.00
C6       1.23104    0.90501    1.07809   1.00
H3       1.27549    0.86194    1.00571   1.00
H3       1.22984    0.96489    1.05540   1.00
H3       1.24576    0.84245    1.07466   1.00
H3       1.21680    0.90774    1.10610   1.00
C4       0.91550    0.68583    0.91560   1.00
C4       0.91450    0.64417    0.91440   1.00
C3       0.94935    0.70654    0.92710   1.00
C3       0.94653    0.62179    0.90106   1.00
C3       0.88284    0.70857    0.90438   1.00
C3       0.88148    0.62313    0.92756   1.00
C2       0.91785    0.77013    0.91610   1.00
C2       0.91247    0.55986    0.91393   1.00
C3       0.95041    0.74785    0.92737   1.00
C3       0.94543    0.58051    0.90080   1.00
C3       0.88407    0.74986    0.90467   1.00
C3a      0.88026    0.58172    0.92735   1.00
H1       0.97511    0.69075    0.93632   1.00
H1       0.97246    0.63625    0.89029   1.00
H1       0.97682    0.76260    0.93644   1.00
H1       0.97048    0.56444    0.89019   1.00
H1       0.85856    0.76618    0.89569   1.00
C5       0.84428    0.56120    0.94199   1.00
H1       0.85630    0.63878    0.93839   1.00
H1       0.85636    0.69441    0.89454   1.00
H2       0.84735    0.52901    0.93937   1.00
H2       0.84062    0.56795    0.97350   1.00
N1       0.80989    0.57375    0.92003   1.00
C6       0.80386    0.56856    0.88155   1.00
C6       0.77834    0.59212    0.93457   1.00
C6       0.76814    0.58398    0.87129   1.00
C6       0.75191    0.59896    0.90501   1.00
H3       0.82429    0.55451    0.86194   1.00
H3       0.77460    0.60016    0.96489   1.00
H3       0.75534    0.58424    0.84245   1.00
H3       0.72390    0.61320    0.90774   1.00
C4       0.91560    0.91550    0.68583   1.00
C4       0.91440    0.91450    0.64417   1.00
C3       0.92710    0.94935    0.70654   1.00
C3       0.90106    0.94653    0.62179   1.00
C3       0.90438    0.88284    0.70857   1.00
C3       0.92756    0.88148    0.62313   1.00
C2       0.91610    0.91785    0.77013   1.00
C2       0.91393    0.91247    0.55986   1.00
C3       0.92737    0.95041    0.74785   1.00
C3       0.90080    0.94543    0.58051   1.00
C3       0.90467    0.88407    0.74986   1.00
C3a      0.92735    0.88026    0.58172   1.00
H1       0.93632    0.97511    0.69075   1.00
H1       0.89029    0.97246    0.63625   1.00
H1       0.93644    0.97682    0.76260   1.00
H1       0.89019    0.97048    0.56444   1.00
H1       0.89569    0.85856    0.76618   1.00
C5       0.94199    0.84428    0.56120   1.00
H1       0.93839    0.85630    0.63878   1.00
H1       0.89454    0.85636    0.69441   1.00
H2       0.93937    0.84735    0.52901   1.00
H2       0.97350    0.84062    0.56795   1.00
N1       0.92003    0.80989    0.57375   1.00
C6       0.88155    0.80386    0.56856   1.00
C6       0.93457    0.77834    0.59212   1.00
C6       0.87129    0.76814    0.58398   1.00
C6       0.90501    0.75191    0.59896   1.00
H3       0.86194    0.82429    0.55451   1.00
H3       0.96489    0.77460    0.60016   1.00
H3       0.84245    0.75534    0.58424   1.00
H3       0.90774    0.72390    0.61320   1.00
C4       0.41560    0.41450    1.14417   1.00
C4       0.41440    0.41550    1.18583   1.00
C3       0.42710    0.38065    1.12346   1.00
C3       0.40106    0.38347    1.20821   1.00
C3       0.40438    0.44716    1.12143   1.00
C3       0.42756    0.44852    1.20687   1.00
C2       0.41610    0.41215    1.05987   1.00
C2       0.41393    0.41753    1.27014   1.00
C3       0.42737    0.37959    1.08215   1.00
C3       0.40080    0.38457    1.24949   1.00
C3       0.40467    0.44593    1.08014   1.00
C3a      0.42735    0.44974    1.24828   1.00
H1       0.43632    0.35489    1.13925   1.00
H1       0.39029    0.35754    1.19375   1.00
H1       0.43644    0.35318    1.06740   1.00
H1       0.39019    0.35952    1.26556   1.00
H1       0.39569    0.47144    1.06382   1.00
C5       0.44199    0.48572    1.26880   1.00
H1       0.43839    0.47370    1.19122   1.00
H1       0.39454    0.47364    1.13559   1.00
H2       0.43937    0.48265    1.30099   1.00
H2       0.47350    0.48938    1.26205   1.00
N1       0.42003    0.52011    1.25625   1.00
C6       0.38155    0.52614    1.26144   1.00
C6       0.43457    0.55166    1.23788   1.00
C6       0.37129    0.56186    1.24602   1.00
C6       0.40501    0.57809    1.23104   1.00
H3       0.36194    0.50571    1.27549   1.00
H3       0.46489    0.55540    1.22984   1.00
H3       0.34245    0.57466    1.24576   1.00
H3       0.40774    0.60610    1.21680   1.00
C4       0.41450    0.64417    0.91560   1.00
C4       0.41550    0.68583    0.91440   1.00
C3       0.38065    0.62346    0.92710   1.00
C3       0.38347    0.70821    0.90106   1.00
C3       0.44716    0.62143    0.90438   1.00
C3       0.44852    0.70687    0.92756   1.00
C2       0.41215    0.55987    0.91610   1.00
C2       0.41753    0.77014    0.91393   1.00
C3       0.37959    0.58215    0.92737   1.00
C3       0.38457    0.74949    0.90080   1.00
C3       0.44593    0.58014    0.90467   1.00
C3a      0.44974    0.74828    0.92735   1.00
H1       0.35489    0.63925    0.93632   1.00
H1       0.35754    0.69375    0.89029   1.00
H1       0.35318    0.56740    0.93644   1.00
H1       0.35952    0.76556    0.89019   1.00
H1       0.47144    0.56382    0.89569   1.00
C5       0.48572    0.76880    0.94199   1.00
H1       0.47370    0.69122    0.93839   1.00
H1       0.47364    0.63559    0.89454   1.00
H2       0.48265    0.80099    0.93937   1.00
H2       0.48938    0.76205    0.97350   1.00
N1       0.52011    0.75625    0.92003   1.00
C6       0.52614    0.76144    0.88155   1.00
C6       0.55166    0.73788    0.93457   1.00
C6       0.56186    0.74602    0.87129   1.00
C6       0.57809    0.73104    0.90501   1.00
H3       0.50571    0.77549    0.86194   1.00
H3       0.55540    0.72984    0.96489   1.00
H3       0.57466    0.74576    0.84245   1.00
H3       0.60610    0.71680    0.90774   1.00
C4       0.18583    0.41560    0.91550   1.00
C4       0.14417    0.41440    0.91450   1.00
C3       0.20654    0.42710    0.94935   1.00
C3       0.12179    0.40106    0.94653   1.00
C3       0.20857    0.40438    0.88284   1.00
C3       0.12313    0.42756    0.88148   1.00
C2       0.27013    0.41610    0.91785   1.00
C2       0.05986    0.41393    0.91247   1.00
C3       0.24785    0.42737    0.95041   1.00
C3       0.08051    0.40080    0.94543   1.00
C3       0.24986    0.40467    0.88407   1.00
C3a      0.08172    0.42735    0.88026   1.00
H1       0.19075    0.43632    0.97511   1.00
H1       0.13625    0.39029    0.97246   1.00
H1       0.26260    0.43644    0.97682   1.00
H1       0.06444    0.39019    0.97048   1.00
H1       0.26618    0.39569    0.85856   1.00
C5       0.06120    0.44199    0.84428   1.00
H1       0.13878    0.43839    0.85630   1.00
H1       0.19441    0.39454    0.85636   1.00
H2       0.02901    0.43937    0.84735   1.00
H2       0.06795    0.47350    0.84062   1.00
N1       0.07375    0.42003    0.80989   1.00
C6       0.06856    0.38155    0.80386   1.00
C6       0.09212    0.43457    0.77834   1.00
C6       0.08398    0.37129    0.76814   1.00
C6       0.09896    0.40501    0.75191   1.00
H3       0.05451    0.36194    0.82429   1.00
H3       0.10016    0.46489    0.77460   1.00
H3       0.08424    0.34245    0.75534   1.00
H3       0.11320    0.40774    0.72390   1.00
C4       0.64417    0.41560    0.91450   1.00
C4       0.68583    0.41440    0.91550   1.00
C3       0.62346    0.42710    0.88065   1.00
C3       0.70821    0.40106    0.88347   1.00
C3       0.62143    0.40438    0.94716   1.00
C3       0.70687    0.42756    0.94852   1.00
C2       0.55987    0.41610    0.91215   1.00
C2       0.77014    0.41393    0.91753   1.00
C3       0.58215    0.42737    0.87959   1.00
C3       0.74949    0.40080    0.88457   1.00
C3       0.58014    0.40467    0.94593   1.00
C3a      0.74828    0.42735    0.94974   1.00
H1       0.63925    0.43632    0.85489   1.00
H1       0.69375    0.39029    0.85754   1.00
H1       0.56740    0.43644    0.85318   1.00
H1       0.76556    0.39019    0.85952   1.00
H1       0.56382    0.39569    0.97144   1.00
C5       0.76880    0.44199    0.98572   1.00
H1       0.69122    0.43839    0.97370   1.00
H1       0.63559    0.39454    0.97364   1.00
H2       0.80099    0.43937    0.98265   1.00
H2       0.76205    0.47350    0.98938   1.00
N1       0.75625    0.42003    1.02011   1.00
C6       0.76144    0.38155    1.02614   1.00
C6       0.73788    0.43457    1.05166   1.00
C6       0.74602    0.37129    1.06186   1.00
C6       0.73104    0.40501    1.07809   1.00
H3       0.77549    0.36194    1.00571   1.00
H3       0.72984    0.46489    1.05540   1.00
H3       0.74576    0.34245    1.07466   1.00
H3       0.71680    0.40774    1.10610   1.00
C4       0.41550    0.18583    0.91560   1.00
C4       0.41450    0.14417    0.91440   1.00
C3       0.44935    0.20654    0.92710   1.00
C3       0.44653    0.12179    0.90106   1.00
C3       0.38284    0.20857    0.90438   1.00
C3       0.38148    0.12313    0.92756   1.00
C2       0.41785    0.27013    0.91610   1.00
C2       0.41247    0.05986    0.91393   1.00
C3       0.45041    0.24785    0.92737   1.00
C3       0.44543    0.08051    0.90080   1.00
C3       0.38407    0.24986    0.90467   1.00
C3a      0.38026    0.08172    0.92735   1.00
H1       0.47511    0.19075    0.93632   1.00
H1       0.47246    0.13625    0.89029   1.00
H1       0.47682    0.26260    0.93644   1.00
H1       0.47048    0.06444    0.89019   1.00
H1       0.35856    0.26618    0.89569   1.00
C5       0.34428    0.06120    0.94199   1.00
H1       0.35630    0.13878    0.93839   1.00
H1       0.35636    0.19441    0.89454   1.00
H2       0.34735    0.02901    0.93937   1.00
H2       0.34062    0.06795    0.97350   1.00
N1       0.30989    0.07375    0.92003   1.00
C6       0.30386    0.06856    0.88155   1.00
C6       0.27834    0.09212    0.93457   1.00
C6       0.26814    0.08398    0.87129   1.00
C6       0.25191    0.09896    0.90501   1.00
H3       0.32429    0.05451    0.86194   1.00
H3       0.27460    0.10016    0.96489   1.00
H3       0.25534    0.08424    0.84245   1.00
H3       0.22390    0.11320    0.90774   1.00
C4       0.41560    0.41550    0.68583   1.00
C4       0.41440    0.41450    0.64417   1.00
C3       0.42710    0.44935    0.70654   1.00
C3       0.40106    0.44653    0.62179   1.00
C3       0.40438    0.38284    0.70857   1.00
C3       0.42756    0.38148    0.62313   1.00
C2       0.41610    0.41785    0.77013   1.00
C2       0.41393    0.41247    0.55986   1.00
C3       0.42737    0.45041    0.74785   1.00
C3       0.40080    0.44543    0.58051   1.00
C3       0.40467    0.38407    0.74986   1.00
C3a      0.42735    0.38026    0.58172   1.00
H1       0.43632    0.47511    0.69075   1.00
H1       0.39029    0.47246    0.63625   1.00
H1       0.43644    0.47682    0.76260   1.00
H1       0.39019    0.47048    0.56444   1.00
H1       0.39569    0.35856    0.76618   1.00
C5       0.44199    0.34428    0.56120   1.00
H1       0.43839    0.35630    0.63878   1.00
H1       0.39454    0.35636    0.69441   1.00
H2       0.43937    0.34735    0.52901   1.00
H2       0.47350    0.34062    0.56795   1.00
N1       0.42003    0.30989    0.57375   1.00
C6       0.38155    0.30386    0.56856   1.00
C6       0.43457    0.27834    0.59212   1.00
C6       0.37129    0.26814    0.58398   1.00
C6       0.40501    0.25191    0.59896   1.00
H3       0.36194    0.32429    0.55451   1.00
H3       0.46489    0.27460    0.60016   1.00
H3       0.34245    0.25534    0.58424   1.00
H3       0.40774    0.22390    0.61320   1.00
C4       0.41560    0.91450    0.64417   1.00
C4       0.41440    0.91550    0.68583   1.00
C3       0.42710    0.88065    0.62346   1.00
C3       0.40106    0.88347    0.70821   1.00
C3       0.40438    0.94716    0.62143   1.00
C3       0.42756    0.94852    0.70687   1.00
C2       0.41610    0.91215    0.55987   1.00
C2       0.41393    0.91753    0.77014   1.00
C3       0.42737    0.87959    0.58215   1.00
C3       0.40080    0.88457    0.74949   1.00
C3       0.40467    0.94593    0.58014   1.00
C3a      0.42735    0.94974    0.74828   1.00
H1       0.43632    0.85489    0.63925   1.00
H1       0.39029    0.85754    0.69375   1.00
H1       0.43644    0.85318    0.56740   1.00
H1       0.39019    0.85952    0.76556   1.00
H1       0.39569    0.97144    0.56382   1.00
C5       0.44199    0.98572    0.76880   1.00
H1       0.43839    0.97370    0.69122   1.00
H1       0.39454    0.97364    0.63559   1.00
H2       0.43937    0.98265    0.80099   1.00
H2       0.47350    0.98938    0.76205   1.00
N1       0.42003    1.02011    0.75625   1.00
C6       0.38155    1.02614    0.76144   1.00
C6       0.43457    1.05166    0.73788   1.00
C6       0.37129    1.06186    0.74602   1.00
C6       0.40501    1.07809    0.73104   1.00
H3       0.36194    1.00571    0.77549   1.00
H3       0.46489    1.05540    0.72984   1.00
H3       0.34245    1.07466    0.74576   1.00
H3       0.40774    1.10610    0.71680   1.00
C4       0.41450    1.14417    0.41560   1.00
C4       0.41550    1.18583    0.41440   1.00
C3       0.38065    1.12346    0.42710   1.00
C3       0.38347    1.20821    0.40106   1.00
C3       0.44716    1.12143    0.40438   1.00
C3       0.44852    1.20687    0.42756   1.00
C2       0.41215    1.05987    0.41610   1.00
C2       0.41753    1.27014    0.41393   1.00
C3       0.37959    1.08215    0.42737   1.00
C3       0.38457    1.24949    0.40080   1.00
C3       0.44593    1.08014    0.40467   1.00
C3a      0.44974    1.24828    0.42735   1.00
H1       0.35489    1.13925    0.43632   1.00
H1       0.35754    1.19375    0.39029   1.00
H1       0.35318    1.06740    0.43644   1.00
H1       0.35952    1.26556    0.39019   1.00
H1       0.47144    1.06382    0.39569   1.00
C5       0.48572    1.26880    0.44199   1.00
H1       0.47370    1.19122    0.43839   1.00
H1       0.47364    1.13559    0.39454   1.00
H2       0.48265    1.30099    0.43937   1.00
H2       0.48938    1.26205    0.47350   1.00
N1       0.52011    1.25625    0.42003   1.00
C6       0.52614    1.26144    0.38155   1.00
C6       0.55166    1.23788    0.43457   1.00
C6       0.56186    1.24602    0.37129   1.00
C6       0.57809    1.23104    0.40501   1.00
H3       0.50571    1.27549    0.36194   1.00
H3       0.55540    1.22984    0.46489   1.00
H3       0.57466    1.24576    0.34245   1.00
H3       0.60610    1.21680    0.40774   1.00
C4       0.18583    0.91560    0.41550   1.00
C4       0.14417    0.91440    0.41450   1.00
C3       0.20654    0.92710    0.44935   1.00
C3       0.12179    0.90106    0.44653   1.00
C3       0.20857    0.90438    0.38284   1.00
C3       0.12313    0.92756    0.38148   1.00
C2       0.27013    0.91610    0.41785   1.00
C2       0.05986    0.91393    0.41247   1.00
C3       0.24785    0.92737    0.45041   1.00
C3       0.08051    0.90080    0.44543   1.00
C3       0.24986    0.90467    0.38407   1.00
C3a      0.08172    0.92735    0.38026   1.00
H1       0.19075    0.93632    0.47511   1.00
H1       0.13625    0.89029    0.47246   1.00
H1       0.26260    0.93644    0.47682   1.00
H1       0.06444    0.89019    0.47048   1.00
H1       0.26618    0.89569    0.35856   1.00
C5       0.06120    0.94199    0.34428   1.00
H1       0.13878    0.93839    0.35630   1.00
H1       0.19441    0.89454    0.35636   1.00
H2       0.02901    0.93937    0.34735   1.00
H2       0.06795    0.97350    0.34062   1.00
N1       0.07375    0.92003    0.30989   1.00
C6       0.06856    0.88155    0.30386   1.00
C6       0.09212    0.93457    0.27834   1.00
C6       0.08398    0.87129    0.26814   1.00
C6       0.09896    0.90501    0.25191   1.00
H3       0.05451    0.86194    0.32429   1.00
H3       0.10016    0.96489    0.27460   1.00
H3       0.08424    0.84245    0.25534   1.00
H3       0.11320    0.90774    0.22390   1.00
C4       0.64417    0.91560    0.41450   1.00
C4       0.68583    0.91440    0.41550   1.00
C3       0.62346    0.92710    0.38065   1.00
C3       0.70821    0.90106    0.38347   1.00
C3       0.62143    0.90438    0.44716   1.00
C3       0.70687    0.92756    0.44852   1.00
C2       0.55987    0.91610    0.41215   1.00
C2       0.77014    0.91393    0.41753   1.00
C3       0.58215    0.92737    0.37959   1.00
C3       0.74949    0.90080    0.38457   1.00
C3       0.58014    0.90467    0.44593   1.00
C3a      0.74828    0.92735    0.44974   1.00
H1       0.63925    0.93632    0.35489   1.00
H1       0.69375    0.89029    0.35754   1.00
H1       0.56740    0.93644    0.35318   1.00
H1       0.76556    0.89019    0.35952   1.00
H1       0.56382    0.89569    0.47144   1.00
C5       0.76880    0.94199    0.48572   1.00
H1       0.69122    0.93839    0.47370   1.00
H1       0.63559    0.89454    0.47364   1.00
H2       0.80099    0.93937    0.48265   1.00
H2       0.76205    0.97350    0.48938   1.00
N1       0.75625    0.92003    0.52011   1.00
C6       0.76144    0.88155    0.52614   1.00
C6       0.73788    0.93457    0.55166   1.00
C6       0.74602    0.87129    0.56186   1.00
C6       0.73104    0.90501    0.57809   1.00
H3       0.77549    0.86194    0.50571   1.00
H3       0.72984    0.96489    0.55540   1.00
H3       0.74576    0.84245    0.57466   1.00
H3       0.71680    0.90774    0.60610   1.00
C4       0.41550    0.68583    0.41560   1.00
C4       0.41450    0.64417    0.41440   1.00
C3       0.44935    0.70654    0.42710   1.00
C3       0.44653    0.62179    0.40106   1.00
C3       0.38284    0.70857    0.40438   1.00
C3       0.38148    0.62313    0.42756   1.00
C2       0.41785    0.77013    0.41610   1.00
C2       0.41247    0.55986    0.41393   1.00
C3       0.45041    0.74785    0.42737   1.00
C3       0.44543    0.58051    0.40080   1.00
C3       0.38407    0.74986    0.40467   1.00
C3a      0.38026    0.58172    0.42735   1.00
H1       0.47511    0.69075    0.43632   1.00
H1       0.47246    0.63625    0.39029   1.00
H1       0.47682    0.76260    0.43644   1.00
H1       0.47048    0.56444    0.39019   1.00
H1       0.35856    0.76618    0.39569   1.00
C5       0.34428    0.56120    0.44199   1.00
H1       0.35630    0.63878    0.43839   1.00
H1       0.35636    0.69441    0.39454   1.00
H2       0.34735    0.52901    0.43937   1.00
H2       0.34062    0.56795    0.47350   1.00
N1       0.30989    0.57375    0.42003   1.00
C6       0.30386    0.56856    0.38155   1.00
C6       0.27834    0.59212    0.43457   1.00
C6       0.26814    0.58398    0.37129   1.00
C6       0.25191    0.59896    0.40501   1.00
H3       0.32429    0.55451    0.36194   1.00
H3       0.27460    0.60016    0.46489   1.00
H3       0.25534    0.58424    0.34245   1.00
H3       0.22390    0.61320    0.40774   1.00
C4       0.41560    0.91550    0.18583   1.00
C4       0.41440    0.91450    0.14417   1.00
C3       0.42710    0.94935    0.20654   1.00
C3       0.40106    0.94653    0.12179   1.00
C3       0.40438    0.88284    0.20857   1.00
C3       0.42756    0.88148    0.12313   1.00
C2       0.41610    0.91785    0.27013   1.00
C2       0.41393    0.91247    0.05986   1.00
C3       0.42737    0.95041    0.24785   1.00
C3       0.40080    0.94543    0.08051   1.00
C3       0.40467    0.88407    0.24986   1.00
C3a      0.42735    0.88026    0.08172   1.00
H1       0.43632    0.97511    0.19075   1.00
H1       0.39029    0.97246    0.13625   1.00
H1       0.43644    0.97682    0.26260   1.00
H1       0.39019    0.97048    0.06444   1.00
H1       0.39569    0.85856    0.26618   1.00
C5       0.44199    0.84428    0.06120   1.00
H1       0.43839    0.85630    0.13878   1.00
H1       0.39454    0.85636    0.19441   1.00
H2       0.43937    0.84735    0.02901   1.00
H2       0.47350    0.84062    0.06795   1.00
N1       0.42003    0.80989    0.07375   1.00
C6       0.38155    0.80386    0.06856   1.00
C6       0.43457    0.77834    0.09212   1.00
C6       0.37129    0.76814    0.08398   1.00
C6       0.40501    0.75191    0.09896   1.00
H3       0.36194    0.82429    0.05451   1.00
H3       0.46489    0.77460    0.10016   1.00
H3       0.34245    0.75534    0.08424   1.00
H3       0.40774    0.72390    0.11320   1.00
C4       0.91560    0.41450    0.64417   1.00
C4       0.91440    0.41550    0.68583   1.00
C3       0.92710    0.38065    0.62346   1.00
C3       0.90106    0.38347    0.70821   1.00
C3       0.90438    0.44716    0.62143   1.00
C3       0.92756    0.44852    0.70687   1.00
C2       0.91610    0.41215    0.55987   1.00
C2       0.91393    0.41753    0.77014   1.00
C3       0.92737    0.37959    0.58215   1.00
C3       0.90080    0.38457    0.74949   1.00
C3       0.90467    0.44593    0.58014   1.00
C3a      0.92735    0.44974    0.74828   1.00
H1       0.93632    0.35489    0.63925   1.00
H1       0.89029    0.35754    0.69375   1.00
H1       0.93644    0.35318    0.56740   1.00
H1       0.89019    0.35952    0.76556   1.00
H1       0.89569    0.47144    0.56382   1.00
C5       0.94199    0.48572    0.76880   1.00
H1       0.93839    0.47370    0.69122   1.00
H1       0.89454    0.47364    0.63559   1.00
H2       0.93937    0.48265    0.80099   1.00
H2       0.97350    0.48938    0.76205   1.00
N1       0.92003    0.52011    0.75625   1.00
C6       0.88155    0.52614    0.76144   1.00
C6       0.93457    0.55166    0.73788   1.00
C6       0.87129    0.56186    0.74602   1.00
C6       0.90501    0.57809    0.73104   1.00
H3       0.86194    0.50571    0.77549   1.00
H3       0.96489    0.55540    0.72984   1.00
H3       0.84245    0.57466    0.74576   1.00
H3       0.90774    0.60610    0.71680   1.00
C4       0.91450    0.64417    0.41560   1.00
C4       0.91550    0.68583    0.41440   1.00
C3       0.88065    0.62346    0.42710   1.00
C3       0.88347    0.70821    0.40106   1.00
C3       0.94716    0.62143    0.40438   1.00
C3       0.94852    0.70687    0.42756   1.00
C2       0.91215    0.55987    0.41610   1.00
C2       0.91753    0.77014    0.41393   1.00
C3       0.87959    0.58215    0.42737   1.00
C3       0.88457    0.74949    0.40080   1.00
C3       0.94593    0.58014    0.40467   1.00
C3a      0.94974    0.74828    0.42735   1.00
H1       0.85489    0.63925    0.43632   1.00
H1       0.85754    0.69375    0.39029   1.00
H1       0.85318    0.56740    0.43644   1.00
H1       0.85952    0.76556    0.39019   1.00
H1       0.97144    0.56382    0.39569   1.00
C5       0.98572    0.76880    0.44199   1.00
H1       0.97370    0.69122    0.43839   1.00
H1       0.97364    0.63559    0.39454   1.00
H2       0.98265    0.80099    0.43937   1.00
H2       0.98938    0.76205    0.47350   1.00
N1       1.02011    0.75625    0.42003   1.00
C6       1.02614    0.76144    0.38155   1.00
C6       1.05166    0.73788    0.43457   1.00
C6       1.06186    0.74602    0.37129   1.00
C6       1.07809    0.73104    0.40501   1.00
H3       1.00571    0.77549    0.36194   1.00
H3       1.05540    0.72984    0.46489   1.00
H3       1.07466    0.74576    0.34245   1.00
H3       1.10610    0.71680    0.40774   1.00
C4       0.68583    0.41560    0.41550   1.00
C4       0.64417    0.41440    0.41450   1.00
C3       0.70654    0.42710    0.44935   1.00
C3       0.62179    0.40106    0.44653   1.00
C3       0.70857    0.40438    0.38284   1.00
C3       0.62313    0.42756    0.38148   1.00
C2       0.77013    0.41610    0.41785   1.00
C2       0.55986    0.41393    0.41247   1.00
C3       0.74785    0.42737    0.45041   1.00
C3       0.58051    0.40080    0.44543   1.00
C3       0.74986    0.40467    0.38407   1.00
C3a      0.58172    0.42735    0.38026   1.00
H1       0.69075    0.43632    0.47511   1.00
H1       0.63625    0.39029    0.47246   1.00
H1       0.76260    0.43644    0.47682   1.00
H1       0.56444    0.39019    0.47048   1.00
H1       0.76618    0.39569    0.35856   1.00
C5       0.56120    0.44199    0.34428   1.00
H1       0.63878    0.43839    0.35630   1.00
H1       0.69441    0.39454    0.35636   1.00
H2       0.52901    0.43937    0.34735   1.00
H2       0.56795    0.47350    0.34062   1.00
N1       0.57375    0.42003    0.30989   1.00
C6       0.56856    0.38155    0.30386   1.00
C6       0.59212    0.43457    0.27834   1.00
C6       0.58398    0.37129    0.26814   1.00
C6       0.59896    0.40501    0.25191   1.00
H3       0.55451    0.36194    0.32429   1.00
H3       0.60016    0.46489    0.27460   1.00
H3       0.58424    0.34245    0.25534   1.00
H3       0.61320    0.40774    0.22390   1.00
C4       1.14417    0.41560    0.41450   1.00
C4       1.18583    0.41440    0.41550   1.00
C3       1.12346    0.42710    0.38065   1.00
C3       1.20821    0.40106    0.38347   1.00
C3       1.12143    0.40438    0.44716   1.00
C3       1.20687    0.42756    0.44852   1.00
C2       1.05987    0.41610    0.41215   1.00
C2       1.27014    0.41393    0.41753   1.00
C3       1.08215    0.42737    0.37959   1.00
C3       1.24949    0.40080    0.38457   1.00
C3       1.08014    0.40467    0.44593   1.00
C3a      1.24828    0.42735    0.44974   1.00
H1       1.13925    0.43632    0.35489   1.00
H1       1.19375    0.39029    0.35754   1.00
H1       1.06740    0.43644    0.35318   1.00
H1       1.26556    0.39019    0.35952   1.00
H1       1.06382    0.39569    0.47144   1.00
C5       1.26880    0.44199    0.48572   1.00
H1       1.19122    0.43839    0.47370   1.00
H1       1.13559    0.39454    0.47364   1.00
H2       1.30099    0.43937    0.48265   1.00
H2       1.26205    0.47350    0.48938   1.00
N1       1.25625    0.42003    0.52011   1.00
C6       1.26144    0.38155    0.52614   1.00
C6       1.23788    0.43457    0.55166   1.00
C6       1.24602    0.37129    0.56186   1.00
C6       1.23104    0.40501    0.57809   1.00
H3       1.27549    0.36194    0.50571   1.00
H3       1.22984    0.46489    0.55540   1.00
H3       1.24576    0.34245    0.57466   1.00
H3       1.21680    0.40774    0.60610   1.00
C4       0.91550    0.18583    0.41560   1.00
C4       0.91450    0.14417    0.41440   1.00
C3       0.94935    0.20654    0.42710   1.00
C3       0.94653    0.12179    0.40106   1.00
C3       0.88284    0.20857    0.40438   1.00
C3       0.88148    0.12313    0.42756   1.00
C2       0.91785    0.27013    0.41610   1.00
C2       0.91247    0.05986    0.41393   1.00
C3       0.95041    0.24785    0.42737   1.00
C3       0.94543    0.08051    0.40080   1.00
C3       0.88407    0.24986    0.40467   1.00
C3a      0.88026    0.08172    0.42735   1.00
H1       0.97511    0.19075    0.43632   1.00
H1       0.97246    0.13625    0.39029   1.00
H1       0.97682    0.26260    0.43644   1.00
H1       0.97048    0.06444    0.39019   1.00
H1       0.85856    0.26618    0.39569   1.00
C5       0.84428    0.06120    0.44199   1.00
H1       0.85630    0.13878    0.43839   1.00
H1       0.85636    0.19441    0.39454   1.00
H2       0.84735    0.02901    0.43937   1.00
H2       0.84062    0.06795    0.47350   1.00
N1       0.80989    0.07375    0.42003   1.00
C6       0.80386    0.06856    0.38155   1.00
C6       0.77834    0.09212    0.43457   1.00
C6       0.76814    0.08398    0.37129   1.00
C6       0.75191    0.09896    0.40501   1.00
H3       0.82429    0.05451    0.36194   1.00
H3       0.77460    0.10016    0.46489   1.00
H3       0.75534    0.08424    0.34245   1.00
H3       0.72390    0.11320    0.40774   1.00
C4       0.91560    0.41550    0.18583   1.00
C4       0.91440    0.41450    0.14417   1.00
C3       0.92710    0.44935    0.20654   1.00
C3       0.90106    0.44653    0.12179   1.00
C3       0.90438    0.38284    0.20857   1.00
C3       0.92756    0.38148    0.12313   1.00
C2       0.91610    0.41785    0.27013   1.00
C2       0.91393    0.41247    0.05986   1.00
C3       0.92737    0.45041    0.24785   1.00
C3       0.90080    0.44543    0.08051   1.00
C3       0.90467    0.38407    0.24986   1.00
C3a      0.92735    0.38026    0.08172   1.00
H1       0.93632    0.47511    0.19075   1.00
H1       0.89029    0.47246    0.13625   1.00
H1       0.93644    0.47682    0.26260   1.00
H1       0.89019    0.47048    0.06444   1.00
H1       0.89569    0.35856    0.26618   1.00
C5       0.94199    0.34428    0.06120   1.00
H1       0.93839    0.35630    0.13878   1.00
H1       0.89454    0.35636    0.19441   1.00
H2       0.93937    0.34735    0.02901   1.00
H2       0.97350    0.34062    0.06795   1.00
N1       0.92003    0.30989    0.07375   1.00
C6       0.88155    0.30386    0.06856   1.00
C6       0.93457    0.27834    0.09212   1.00
C6       0.87129    0.26814    0.08398   1.00
C6       0.90501    0.25191    0.09896   1.00
H3       0.86194    0.32429    0.05451   1.00
H3       0.96489    0.27460    0.10016   1.00
H3       0.84245    0.25534    0.08424   1.00
H3       0.90774    0.22390    0.11320   1.00
