data_IRMOF10_SG202_interpen_Ligand4cp_label_v.

_audit_creation_method             'generated by an auxiliary program of Tobunporous'

_symmetry_space_group_name_H-M     'P 1'
_symmetry_Int_Tables_number        1
_symmetry_cell_setting             triclinic

_cell_length_a                    34.2800
_cell_length_b                    34.2800
_cell_length_c                    34.2800
_cell_angle_alpha                 90.0000
_cell_angle_beta                  90.0000
_cell_angle_gamma                 90.0000

loop_
_atom_site_label
_atom_site_fract_x
_atom_site_fract_y
_atom_site_fract_z
_atom_site_occupancy
O1       0.75000    0.75000    0.75000   1.00
Zn1      0.71720    0.78280    0.78280   1.00
Zn1      0.78280    0.71720    0.78280   1.00
Zn1      0.78280    0.78280    0.71720   1.00
Zn1      0.71720    0.71720    0.71720   1.00
O2       0.72650    0.77350    0.83820   1.00
O2       0.72650    0.83820    0.77350   1.00
O2       0.66180    0.77350    0.77350   1.00
O2       0.77350    0.72650    0.83820   1.00
O2       0.83820    0.72650    0.77350   1.00
O2       0.77350    0.66180    0.77350   1.00
O2       0.77350    0.83820    0.72650   1.00
O2       0.83820    0.77350    0.72650   1.00
O2       0.77350    0.77350    0.66180   1.00
O2       0.66180    0.72650    0.72650   1.00
O2       0.72650    0.66180    0.72650   1.00
O2       0.72650    0.72650    0.66180   1.00
C1       0.75000    0.75000    0.85520   1.00
C1       0.75000    0.85520    0.75000   1.00
C1       0.64480    0.75000    0.75000   1.00
C1       0.85520    0.75000    0.75000   1.00
C1       0.75000    0.64480    0.75000   1.00
C1       0.75000    0.75000    0.64480   1.00
O1       0.25000    0.25000    0.75000   1.00
Zn1      0.21720    0.28280    0.78280   1.00
Zn1      0.28280    0.21720    0.78280   1.00
Zn1      0.28280    0.28280    0.71720   1.00
Zn1      0.21720    0.21720    0.71720   1.00
O2       0.22650    0.27350    0.83820   1.00
O2       0.22650    0.33820    0.77350   1.00
O2       0.16180    0.27350    0.77350   1.00
O2       0.27350    0.22650    0.83820   1.00
O2       0.33820    0.22650    0.77350   1.00
O2       0.27350    0.16180    0.77350   1.00
O2       0.27350    0.33820    0.72650   1.00
O2       0.33820    0.27350    0.72650   1.00
O2       0.27350    0.27350    0.66180   1.00
O2       0.16180    0.22650    0.72650   1.00
O2       0.22650    0.16180    0.72650   1.00
O2       0.22650    0.22650    0.66180   1.00
C1       0.25000    0.25000    0.85520   1.00
C1       0.25000    0.35520    0.75000   1.00
C1       0.14480    0.25000    0.75000   1.00
C1       0.35520    0.25000    0.75000   1.00
C1       0.25000    0.14480    0.75000   1.00
C1       0.25000    0.25000    0.64480   1.00
O1       0.25000    0.75000    0.25000   1.00
Zn1      0.21720    0.78280    0.28280   1.00
Zn1      0.28280    0.71720    0.28280   1.00
Zn1      0.28280    0.78280    0.21720   1.00
Zn1      0.21720    0.71720    0.21720   1.00
O2       0.22650    0.77350    0.33820   1.00
O2       0.22650    0.83820    0.27350   1.00
O2       0.16180    0.77350    0.27350   1.00
O2       0.27350    0.72650    0.33820   1.00
O2       0.33820    0.72650    0.27350   1.00
O2       0.27350    0.66180    0.27350   1.00
O2       0.27350    0.83820    0.22650   1.00
O2       0.33820    0.77350    0.22650   1.00
O2       0.27350    0.77350    0.16180   1.00
O2       0.16180    0.72650    0.22650   1.00
O2       0.22650    0.66180    0.22650   1.00
O2       0.22650    0.72650    0.16180   1.00
C1       0.25000    0.75000    0.35520   1.00
C1       0.25000    0.85520    0.25000   1.00
C1       0.14480    0.75000    0.25000   1.00
C1       0.35520    0.75000    0.25000   1.00
C1       0.25000    0.64480    0.25000   1.00
C1       0.25000    0.75000    0.14480   1.00
O1       0.75000    0.25000    0.25000   1.00
Zn1      0.71720    0.28280    0.28280   1.00
Zn1      0.78280    0.21720    0.28280   1.00
Zn1      0.78280    0.28280    0.21720   1.00
Zn1      0.71720    0.21720    0.21720   1.00
O2       0.72650    0.27350    0.33820   1.00
O2       0.72650    0.33820    0.27350   1.00
O2       0.66180    0.27350    0.27350   1.00
O2       0.77350    0.22650    0.33820   1.00
O2       0.83820    0.22650    0.27350   1.00
O2       0.77350    0.16180    0.27350   1.00
O2       0.77350    0.33820    0.22650   1.00
O2       0.83820    0.27350    0.22650   1.00
O2       0.77350    0.27350    0.16180   1.00
O2       0.66180    0.22650    0.22650   1.00
O2       0.72650    0.16180    0.22650   1.00
O2       0.72650    0.22650    0.16180   1.00
C1       0.75000    0.25000    0.35520   1.00
C1       0.75000    0.35520    0.25000   1.00
C1       0.64480    0.25000    0.25000   1.00
C1       0.85520    0.25000    0.25000   1.00
C1       0.75000    0.14480    0.25000   1.00
C1       0.75000    0.25000    0.14480   1.00
O1       0.25000    0.25000    0.25000   1.00
Zn1      0.28280    0.21720    0.21720   1.00
Zn1      0.21720    0.28280    0.21720   1.00
Zn1      0.21720    0.21720    0.28280   1.00
Zn1      0.28280    0.28280    0.28280   1.00
O2       0.27350    0.22650    0.16180   1.00
O2       0.27350    0.16180    0.22650   1.00
O2       0.33820    0.22650    0.22650   1.00
O2       0.22650    0.27350    0.16180   1.00
O2       0.16180    0.27350    0.22650   1.00
O2       0.22650    0.33820    0.22650   1.00
O2       0.22650    0.16180    0.27350   1.00
O2       0.16180    0.22650    0.27350   1.00
O2       0.22650    0.22650    0.33820   1.00
O2       0.33820    0.27350    0.27350   1.00
O2       0.27350    0.33820    0.27350   1.00
O2       0.27350    0.27350    0.33820   1.00
C1       0.25000    0.25000    0.14480   1.00
C1       0.25000    0.14480    0.25000   1.00
C1       0.35520    0.25000    0.25000   1.00
C1       0.14480    0.25000    0.25000   1.00
C1       0.25000    0.35520    0.25000   1.00
C1       0.25000    0.25000    0.35520   1.00
O1       0.75000    0.75000    0.25000   1.00
Zn1      0.78280    0.71720    0.21720   1.00
Zn1      0.71720    0.78280    0.21720   1.00
Zn1      0.71720    0.71720    0.28280   1.00
Zn1      0.78280    0.78280    0.28280   1.00
O2       0.77350    0.72650    0.16180   1.00
O2       0.77350    0.66180    0.22650   1.00
O2       0.83820    0.72650    0.22650   1.00
O2       0.72650    0.77350    0.16180   1.00
O2       0.66180    0.77350    0.22650   1.00
O2       0.72650    0.83820    0.22650   1.00
O2       0.72650    0.66180    0.27350   1.00
O2       0.66180    0.72650    0.27350   1.00
O2       0.72650    0.72650    0.33820   1.00
O2       0.83820    0.77350    0.27350   1.00
O2       0.77350    0.83820    0.27350   1.00
O2       0.77350    0.77350    0.33820   1.00
C1       0.75000    0.75000    0.14480   1.00
C1       0.75000    0.64480    0.25000   1.00
C1       0.85520    0.75000    0.25000   1.00
C1       0.64480    0.75000    0.25000   1.00
C1       0.75000    0.85520    0.25000   1.00
C1       0.75000    0.75000    0.35520   1.00
O1       0.75000    0.25000    0.75000   1.00
Zn1      0.78280    0.21720    0.71720   1.00
Zn1      0.71720    0.28280    0.71720   1.00
Zn1      0.71720    0.21720    0.78280   1.00
Zn1      0.78280    0.28280    0.78280   1.00
O2       0.77350    0.22650    0.66180   1.00
O2       0.77350    0.16180    0.72650   1.00
O2       0.83820    0.22650    0.72650   1.00
O2       0.72650    0.27350    0.66180   1.00
O2       0.66180    0.27350    0.72650   1.00
O2       0.72650    0.33820    0.72650   1.00
O2       0.72650    0.16180    0.77350   1.00
O2       0.66180    0.22650    0.77350   1.00
O2       0.72650    0.22650    0.83820   1.00
O2       0.83820    0.27350    0.77350   1.00
O2       0.77350    0.33820    0.77350   1.00
O2       0.77350    0.27350    0.83820   1.00
C1       0.75000    0.25000    0.64480   1.00
C1       0.75000    0.14480    0.75000   1.00
C1       0.85520    0.25000    0.75000   1.00
C1       0.64480    0.25000    0.75000   1.00
C1       0.75000    0.35520    0.75000   1.00
C1       0.75000    0.25000    0.85520   1.00
O1       0.25000    0.75000    0.75000   1.00
Zn1      0.28280    0.71720    0.71720   1.00
Zn1      0.21720    0.78280    0.71720   1.00
Zn1      0.21720    0.71720    0.78280   1.00
Zn1      0.28280    0.78280    0.78280   1.00
O2       0.27350    0.72650    0.66180   1.00
O2       0.27350    0.66180    0.72650   1.00
O2       0.33820    0.72650    0.72650   1.00
O2       0.22650    0.77350    0.66180   1.00
O2       0.16180    0.77350    0.72650   1.00
O2       0.22650    0.83820    0.72650   1.00
O2       0.22650    0.66180    0.77350   1.00
O2       0.16180    0.72650    0.77350   1.00
O2       0.22650    0.72650    0.83820   1.00
O2       0.33820    0.77350    0.77350   1.00
O2       0.27350    0.83820    0.77350   1.00
O2       0.27350    0.77350    0.83820   1.00
C1       0.25000    0.75000    0.64480   1.00
C1       0.25000    0.64480    0.75000   1.00
C1       0.35520    0.75000    0.75000   1.00
C1       0.14480    0.75000    0.75000   1.00
C1       0.25000    0.85520    0.75000   1.00
C1       0.25000    0.75000    0.85520   1.00
O1       0.91500    0.91500    0.91500   1.00
Zn1      0.88220    0.94780    0.94780   1.00
Zn1      0.94780    0.88220    0.94780   1.00
Zn1      0.94780    0.94780    0.88220   1.00
Zn1      0.88220    0.88220    0.88220   1.00
O2       0.89150    0.93850    1.00320   1.00
O2       0.89150    1.00320    0.93850   1.00
O2       0.82680    0.93850    0.93850   1.00
O2       0.93850    0.89150    1.00320   1.00
O2       1.00320    0.89150    0.93850   1.00
O2       0.93850    0.82680    0.93850   1.00
O2       0.93850    1.00320    0.89150   1.00
O2       1.00320    0.93850    0.89150   1.00
O2       0.93850    0.93850    0.82680   1.00
O2       0.82680    0.89150    0.89150   1.00
O2       0.89150    0.82680    0.89150   1.00
O2       0.89150    0.89150    0.82680   1.00
C1       0.91500    0.91500    1.02020   1.00
C1       0.91500    1.02020    0.91500   1.00
C1       0.80980    0.91500    0.91500   1.00
C1       1.02020    0.91500    0.91500   1.00
C1       0.91500    0.80980    0.91500   1.00
C1       0.91500    0.91500    0.80980   1.00
O1       0.41500    0.41500    0.91500   1.00
Zn1      0.38220    0.44780    0.94780   1.00
Zn1      0.44780    0.38220    0.94780   1.00
Zn1      0.44780    0.44780    0.88220   1.00
Zn1      0.38220    0.38220    0.88220   1.00
O2       0.39150    0.43850    1.00320   1.00
O2       0.39150    0.50320    0.93850   1.00
O2       0.32680    0.43850    0.93850   1.00
O2       0.43850    0.39150    1.00320   1.00
O2       0.50320    0.39150    0.93850   1.00
O2       0.43850    0.32680    0.93850   1.00
O2       0.43850    0.50320    0.89150   1.00
O2       0.50320    0.43850    0.89150   1.00
O2       0.43850    0.43850    0.82680   1.00
O2       0.32680    0.39150    0.89150   1.00
O2       0.39150    0.32680    0.89150   1.00
O2       0.39150    0.39150    0.82680   1.00
C1       0.41500    0.41500    1.02020   1.00
C1       0.41500    0.52020    0.91500   1.00
C1       0.30980    0.41500    0.91500   1.00
C1       0.52020    0.41500    0.91500   1.00
C1       0.41500    0.30980    0.91500   1.00
C1       0.41500    0.41500    0.80980   1.00
O1       0.41500    0.91500    0.41500   1.00
Zn1      0.38220    0.94780    0.44780   1.00
Zn1      0.44780    0.88220    0.44780   1.00
Zn1      0.44780    0.94780    0.38220   1.00
Zn1      0.38220    0.88220    0.38220   1.00
O2       0.39150    0.93850    0.50320   1.00
O2       0.39150    1.00320    0.43850   1.00
O2       0.32680    0.93850    0.43850   1.00
O2       0.43850    0.89150    0.50320   1.00
O2       0.50320    0.89150    0.43850   1.00
O2       0.43850    0.82680    0.43850   1.00
O2       0.43850    1.00320    0.39150   1.00
O2       0.50320    0.93850    0.39150   1.00
O2       0.43850    0.93850    0.32680   1.00
O2       0.32680    0.89150    0.39150   1.00
O2       0.39150    0.82680    0.39150   1.00
O2       0.39150    0.89150    0.32680   1.00
C1       0.41500    0.91500    0.52020   1.00
C1       0.41500    1.02020    0.41500   1.00
C1       0.30980    0.91500    0.41500   1.00
C1       0.52020    0.91500    0.41500   1.00
C1       0.41500    0.80980    0.41500   1.00
C1       0.41500    0.91500    0.30980   1.00
O1       0.91500    0.41500    0.41500   1.00
Zn1      0.88220    0.44780    0.44780   1.00
Zn1      0.94780    0.38220    0.44780   1.00
Zn1      0.94780    0.44780    0.38220   1.00
Zn1      0.88220    0.38220    0.38220   1.00
O2       0.89150    0.43850    0.50320   1.00
O2       0.89150    0.50320    0.43850   1.00
O2       0.82680    0.43850    0.43850   1.00
O2       0.93850    0.39150    0.50320   1.00
O2       1.00320    0.39150    0.43850   1.00
O2       0.93850    0.32680    0.43850   1.00
O2       0.93850    0.50320    0.39150   1.00
O2       1.00320    0.43850    0.39150   1.00
O2       0.93850    0.43850    0.32680   1.00
O2       0.82680    0.39150    0.39150   1.00
O2       0.89150    0.32680    0.39150   1.00
O2       0.89150    0.39150    0.32680   1.00
C1       0.91500    0.41500    0.52020   1.00
C1       0.91500    0.52020    0.41500   1.00
C1       0.80980    0.41500    0.41500   1.00
C1       1.02020    0.41500    0.41500   1.00
C1       0.91500    0.30980    0.41500   1.00
C1       0.91500    0.41500    0.30980   1.00
O1       0.41500    0.41500    0.41500   1.00
Zn1      0.44780    0.38220    0.38220   1.00
Zn1      0.38220    0.44780    0.38220   1.00
Zn1      0.38220    0.38220    0.44780   1.00
Zn1      0.44780    0.44780    0.44780   1.00
O2       0.43850    0.39150    0.32680   1.00
O2       0.43850    0.32680    0.39150   1.00
O2       0.50320    0.39150    0.39150   1.00
O2       0.39150    0.43850    0.32680   1.00
O2       0.32680    0.43850    0.39150   1.00
O2       0.39150    0.50320    0.39150   1.00
O2       0.39150    0.32680    0.43850   1.00
O2       0.32680    0.39150    0.43850   1.00
O2       0.39150    0.39150    0.50320   1.00
O2       0.50320    0.43850    0.43850   1.00
O2       0.43850    0.50320    0.43850   1.00
O2       0.43850    0.43850    0.50320   1.00
C1       0.41500    0.41500    0.30980   1.00
C1       0.41500    0.30980    0.41500   1.00
C1       0.52020    0.41500    0.41500   1.00
C1       0.30980    0.41500    0.41500   1.00
C1       0.41500    0.52020    0.41500   1.00
C1       0.41500    0.41500    0.52020   1.00
O1       0.91500    0.91500    0.41500   1.00
Zn1      0.94780    0.88220    0.38220   1.00
Zn1      0.88220    0.94780    0.38220   1.00
Zn1      0.88220    0.88220    0.44780   1.00
Zn1      0.94780    0.94780    0.44780   1.00
O2       0.93850    0.89150    0.32680   1.00
O2       0.93850    0.82680    0.39150   1.00
O2       1.00320    0.89150    0.39150   1.00
O2       0.89150    0.93850    0.32680   1.00
O2       0.82680    0.93850    0.39150   1.00
O2       0.89150    1.00320    0.39150   1.00
O2       0.89150    0.82680    0.43850   1.00
O2       0.82680    0.89150    0.43850   1.00
O2       0.89150    0.89150    0.50320   1.00
O2       1.00320    0.93850    0.43850   1.00
O2       0.93850    1.00320    0.43850   1.00
O2       0.93850    0.93850    0.50320   1.00
C1       0.91500    0.91500    0.30980   1.00
C1       0.91500    0.80980    0.41500   1.00
C1       1.02020    0.91500    0.41500   1.00
C1       0.80980    0.91500    0.41500   1.00
C1       0.91500    1.02020    0.41500   1.00
C1       0.91500    0.91500    0.52020   1.00
O1       0.91500    0.41500    0.91500   1.00
Zn1      0.94780    0.38220    0.88220   1.00
Zn1      0.88220    0.44780    0.88220   1.00
Zn1      0.88220    0.38220    0.94780   1.00
Zn1      0.94780    0.44780    0.94780   1.00
O2       0.93850    0.39150    0.82680   1.00
O2       0.93850    0.32680    0.89150   1.00
O2       1.00320    0.39150    0.89150   1.00
O2       0.89150    0.43850    0.82680   1.00
O2       0.82680    0.43850    0.89150   1.00
O2       0.89150    0.50320    0.89150   1.00
O2       0.89150    0.32680    0.93850   1.00
O2       0.82680    0.39150    0.93850   1.00
O2       0.89150    0.39150    1.00320   1.00
O2       1.00320    0.43850    0.93850   1.00
O2       0.93850    0.50320    0.93850   1.00
O2       0.93850    0.43850    1.00320   1.00
C1       0.91500    0.41500    0.80980   1.00
C1       0.91500    0.30980    0.91500   1.00
C1       1.02020    0.41500    0.91500   1.00
C1       0.80980    0.41500    0.91500   1.00
C1       0.91500    0.52020    0.91500   1.00
C1       0.91500    0.41500    1.02020   1.00
O1       0.41500    0.91500    0.91500   1.00
Zn1      0.44780    0.88220    0.88220   1.00
Zn1      0.38220    0.94780    0.88220   1.00
Zn1      0.38220    0.88220    0.94780   1.00
Zn1      0.44780    0.94780    0.94780   1.00
O2       0.43850    0.89150    0.82680   1.00
O2       0.43850    0.82680    0.89150   1.00
O2       0.50320    0.89150    0.89150   1.00
O2       0.39150    0.93850    0.82680   1.00
O2       0.32680    0.93850    0.89150   1.00
O2       0.39150    1.00320    0.89150   1.00
O2       0.39150    0.82680    0.93850   1.00
O2       0.32680    0.89150    0.93850   1.00
O2       0.39150    0.89150    1.00320   1.00
O2       0.50320    0.93850    0.93850   1.00
O2       0.43850    1.00320    0.93850   1.00
O2       0.43850    0.93850    1.00320   1.00
C1       0.41500    0.91500    0.80980   1.00
C1       0.41500    0.80980    0.91500   1.00
C1       0.52020    0.91500    0.91500   1.00
C1       0.30980    0.91500    0.91500   1.00
C1       0.41500    1.02020    0.91500   1.00
C1       0.41500    0.91500    1.02020   1.00
C4       0.75420    0.75230    0.98025   1.00
C4       0.75561    0.75166    1.02191   1.00
C3       0.73920    0.78473    0.95897   1.00
C3       0.74599    0.78484    1.04504   1.00
C3       0.76815    0.71950    0.95854   1.00
C3       0.76707    0.71675    1.04170   1.00
C2       0.75310    0.75445    0.89595   1.00
C2       0.75659    0.74981    1.10622   1.00
C3       0.73882    0.78592    0.91811   1.00
C3       0.74625    0.78397    1.08591   1.00
C3       0.76745    0.72197    0.91696   1.00
C3       0.76675    0.71700    1.08336   1.00
H1       0.72763    0.80854    0.97237   1.00
H1       0.73880    0.81102    1.03306   1.00
C5       0.78207    0.68536    0.97835   1.00
C5       0.77865    0.68291    1.01998   1.00
H1       0.72776    0.81022    0.90451   1.00
H1       0.73886    0.80884    1.10091   1.00
H1       0.77736    0.69934    0.90052   1.00
H1       0.77446    0.69266    1.09848   1.00
C6       0.80056    0.65262    0.95515   1.00
C6       0.78668    0.64498    1.04119   1.00
H2       0.82019    0.66507    0.93345   1.00
H2       0.76411    0.64037    1.06310   1.00
H2       0.82059    0.63556    0.97286   1.00
H2       0.78248    0.61986    1.02228   1.00
C6       0.76993    0.62451    0.93606   1.00
C6       0.82859    0.64304    1.05942   1.00
H2       0.74645    0.64165    0.92292   1.00
H2       0.83525    0.67071    1.07383   1.00
C6       0.78504    0.59505    0.90459   1.00
C6       0.83715    0.60939    1.08911   1.00
H2       0.75609    0.60790    0.95949   1.00
H2       0.84950    0.64080    1.03546   1.00
C6       0.79954    0.61632    0.86735   1.00
C6       0.81294    0.61401    1.12708   1.00
C6       0.81824    0.56896    0.92074   1.00
C6       0.82899    0.56875    1.07107   1.00
C6       0.75072    0.56807    0.89245   1.00
C6       0.88097    0.61106    1.10054   1.00
H2       0.77696    0.63549    0.85558   1.00
H2       0.81757    0.64269    1.14020   1.00
H2       0.82525    0.63402    0.87330   1.00
H2       0.78183    0.61072    1.12154   1.00
H2       0.80746    0.59551    0.84459   1.00
H2       0.82108    0.59203    1.14863   1.00
H2       0.82664    0.54671    0.89955   1.00
H2       0.83768    0.54545    1.09098   1.00
H2       0.84415    0.58622    0.92725   1.00
H2       0.79800    0.56502    1.06494   1.00
H2       0.80906    0.55427    0.94745   1.00
H2       0.84507    0.56506    1.04385   1.00
H2       0.72659    0.58505    0.88042   1.00
H2       0.88821    0.63910    1.11383   1.00
H2       0.75979    0.54708    0.87025   1.00
H2       0.88835    0.58822    1.12149   1.00
H2       0.73970    0.55162    0.91739   1.00
H2       0.89963    0.60717    1.07502   1.00
C4       0.75230    0.98025    0.75420   1.00
C4       0.75166    1.02191    0.75561   1.00
C3       0.78473    0.95897    0.73920   1.00
C3       0.78484    1.04504    0.74599   1.00
C3       0.71950    0.95854    0.76815   1.00
C3       0.71675    1.04170    0.76707   1.00
C2       0.75445    0.89595    0.75310   1.00
C2       0.74981    1.10622    0.75659   1.00
C3       0.78592    0.91811    0.73882   1.00
C3       0.78397    1.08591    0.74625   1.00
C3       0.72197    0.91696    0.76745   1.00
C3       0.71700    1.08336    0.76675   1.00
H1       0.80854    0.97237    0.72763   1.00
H1       0.81102    1.03306    0.73880   1.00
C5       0.68536    0.97835    0.78207   1.00
C5       0.68291    1.01998    0.77865   1.00
H1       0.81022    0.90451    0.72776   1.00
H1       0.80884    1.10091    0.73886   1.00
H1       0.69934    0.90052    0.77736   1.00
H1       0.69266    1.09848    0.77446   1.00
C6       0.65262    0.95515    0.80056   1.00
C6       0.64498    1.04119    0.78668   1.00
H2       0.66507    0.93345    0.82019   1.00
H2       0.64037    1.06310    0.76411   1.00
H2       0.63556    0.97286    0.82059   1.00
H2       0.61986    1.02228    0.78248   1.00
C6       0.62451    0.93606    0.76993   1.00
C6       0.64304    1.05942    0.82859   1.00
H2       0.64165    0.92292    0.74645   1.00
H2       0.67071    1.07383    0.83525   1.00
C6       0.59505    0.90459    0.78504   1.00
C6       0.60939    1.08911    0.83715   1.00
H2       0.60790    0.95949    0.75609   1.00
H2       0.64080    1.03546    0.84950   1.00
C6       0.61632    0.86735    0.79954   1.00
C6       0.61401    1.12708    0.81294   1.00
C6       0.56896    0.92074    0.81824   1.00
C6       0.56875    1.07107    0.82899   1.00
C6       0.56807    0.89245    0.75072   1.00
C6       0.61106    1.10054    0.88097   1.00
H2       0.63549    0.85558    0.77696   1.00
H2       0.64269    1.14020    0.81757   1.00
H2       0.63402    0.87330    0.82525   1.00
H2       0.61072    1.12154    0.78183   1.00
H2       0.59551    0.84459    0.80746   1.00
H2       0.59203    1.14863    0.82108   1.00
H2       0.54671    0.89955    0.82664   1.00
H2       0.54545    1.09098    0.83768   1.00
H2       0.58622    0.92725    0.84415   1.00
H2       0.56502    1.06494    0.79800   1.00
H2       0.55427    0.94745    0.80906   1.00
H2       0.56506    1.04385    0.84507   1.00
H2       0.58505    0.88042    0.72659   1.00
H2       0.63910    1.11383    0.88821   1.00
H2       0.54708    0.87025    0.75979   1.00
H2       0.58822    1.12149    0.88835   1.00
H2       0.55162    0.91739    0.73970   1.00
H2       0.60717    1.07502    0.89963   1.00
C4       0.51975    0.75420    0.74770   1.00
C4       0.47809    0.75561    0.74834   1.00
C3       0.54103    0.73920    0.71527   1.00
C3       0.45496    0.74599    0.71516   1.00
C3       0.54146    0.76815    0.78050   1.00
C3       0.45830    0.76707    0.78325   1.00
C2       0.60405    0.75310    0.74555   1.00
C2       0.39378    0.75659    0.75019   1.00
C3       0.58189    0.73882    0.71408   1.00
C3       0.41409    0.74625    0.71603   1.00
C3       0.58304    0.76745    0.77803   1.00
C3       0.41664    0.76675    0.78300   1.00
H1       0.52763    0.72763    0.69146   1.00
H1       0.46694    0.73880    0.68898   1.00
C5       0.52165    0.78207    0.81464   1.00
C5       0.48002    0.77865    0.81709   1.00
H1       0.59549    0.72776    0.68978   1.00
H1       0.39909    0.73886    0.69116   1.00
H1       0.59948    0.77736    0.80066   1.00
H1       0.40152    0.77446    0.80734   1.00
C6       0.54485    0.80056    0.84738   1.00
C6       0.45881    0.78668    0.85502   1.00
H2       0.56655    0.82019    0.83493   1.00
H2       0.43690    0.76411    0.85963   1.00
H2       0.52714    0.82059    0.86444   1.00
H2       0.47772    0.78248    0.88014   1.00
C6       0.56394    0.76993    0.87549   1.00
C6       0.44058    0.82859    0.85696   1.00
H2       0.57708    0.74645    0.85835   1.00
H2       0.42617    0.83525    0.82929   1.00
C6       0.59541    0.78504    0.90495   1.00
C6       0.41089    0.83715    0.89061   1.00
H2       0.54051    0.75609    0.89210   1.00
H2       0.46454    0.84950    0.85920   1.00
C6       0.63265    0.79954    0.88368   1.00
C6       0.37292    0.81294    0.88599   1.00
C6       0.57926    0.81824    0.93104   1.00
C6       0.42893    0.82899    0.93125   1.00
C6       0.60755    0.75072    0.93193   1.00
C6       0.39946    0.88097    0.88894   1.00
H2       0.64442    0.77696    0.86451   1.00
H2       0.35980    0.81757    0.85731   1.00
H2       0.62670    0.82525    0.86598   1.00
H2       0.37846    0.78183    0.88928   1.00
H2       0.65541    0.80746    0.90449   1.00
H2       0.35137    0.82108    0.90797   1.00
H2       0.60045    0.82664    0.95329   1.00
H2       0.40902    0.83768    0.95455   1.00
H2       0.57275    0.84415    0.91378   1.00
H2       0.43506    0.79800    0.93498   1.00
H2       0.55255    0.80906    0.94573   1.00
H2       0.45615    0.84507    0.93494   1.00
H2       0.61958    0.72659    0.91495   1.00
H2       0.38617    0.88821    0.86090   1.00
H2       0.62975    0.75979    0.95292   1.00
H2       0.37851    0.88835    0.91178   1.00
H2       0.58261    0.73970    0.94838   1.00
H2       0.42498    0.89963    0.89283   1.00
C4       0.98025    0.75420    0.75230   1.00
C4       1.02191    0.75561    0.75166   1.00
C3       0.95897    0.73920    0.78473   1.00
C3       1.04504    0.74599    0.78484   1.00
C3       0.95854    0.76815    0.71950   1.00
C3       1.04170    0.76707    0.71675   1.00
C2       0.89595    0.75310    0.75445   1.00
C2       1.10622    0.75659    0.74981   1.00
C3       0.91811    0.73882    0.78592   1.00
C3       1.08591    0.74625    0.78397   1.00
C3       0.91696    0.76745    0.72197   1.00
C3       1.08336    0.76675    0.71700   1.00
H1       0.97237    0.72763    0.80854   1.00
H1       1.03306    0.73880    0.81102   1.00
C5       0.97835    0.78207    0.68536   1.00
C5       1.01998    0.77865    0.68291   1.00
H1       0.90451    0.72776    0.81022   1.00
H1       1.10091    0.73886    0.80884   1.00
H1       0.90052    0.77736    0.69934   1.00
H1       1.09848    0.77446    0.69266   1.00
C6       0.95515    0.80056    0.65262   1.00
C6       1.04119    0.78668    0.64498   1.00
H2       0.93345    0.82019    0.66507   1.00
H2       1.06310    0.76411    0.64037   1.00
H2       0.97286    0.82059    0.63556   1.00
H2       1.02228    0.78248    0.61986   1.00
C6       0.93606    0.76993    0.62451   1.00
C6       1.05942    0.82859    0.64304   1.00
H2       0.92292    0.74645    0.64165   1.00
H2       1.07383    0.83525    0.67071   1.00
C6       0.90459    0.78504    0.59505   1.00
C6       1.08911    0.83715    0.60939   1.00
H2       0.95949    0.75609    0.60790   1.00
H2       1.03546    0.84950    0.64080   1.00
C6       0.86735    0.79954    0.61632   1.00
C6       1.12708    0.81294    0.61401   1.00
C6       0.92074    0.81824    0.56896   1.00
C6       1.07107    0.82899    0.56875   1.00
C6       0.89245    0.75072    0.56807   1.00
C6       1.10054    0.88097    0.61106   1.00
H2       0.85558    0.77696    0.63549   1.00
H2       1.14020    0.81757    0.64269   1.00
H2       0.87330    0.82525    0.63402   1.00
H2       1.12154    0.78183    0.61072   1.00
H2       0.84459    0.80746    0.59551   1.00
H2       1.14863    0.82108    0.59203   1.00
H2       0.89955    0.82664    0.54671   1.00
H2       1.09098    0.83768    0.54545   1.00
H2       0.92725    0.84415    0.58622   1.00
H2       1.06494    0.79800    0.56502   1.00
H2       0.94745    0.80906    0.55427   1.00
H2       1.04385    0.84507    0.56506   1.00
H2       0.88042    0.72659    0.58505   1.00
H2       1.11383    0.88821    0.63910   1.00
H2       0.87025    0.75979    0.54708   1.00
H2       1.12149    0.88835    0.58822   1.00
H2       0.91739    0.73970    0.55162   1.00
H2       1.07502    0.89963    0.60717   1.00
C4       0.74770    0.51975    0.75420   1.00
C4       0.74834    0.47809    0.75561   1.00
C3       0.71527    0.54103    0.73920   1.00
C3       0.71516    0.45496    0.74599   1.00
C3       0.78050    0.54146    0.76815   1.00
C3       0.78325    0.45830    0.76707   1.00
C2       0.74555    0.60405    0.75310   1.00
C2       0.75019    0.39378    0.75659   1.00
C3       0.71408    0.58189    0.73882   1.00
C3       0.71603    0.41409    0.74625   1.00
C3       0.77803    0.58304    0.76745   1.00
C3       0.78300    0.41664    0.76675   1.00
H1       0.69146    0.52763    0.72763   1.00
H1       0.68898    0.46694    0.73880   1.00
C5       0.81464    0.52165    0.78207   1.00
C5       0.81709    0.48002    0.77865   1.00
H1       0.68978    0.59549    0.72776   1.00
H1       0.69116    0.39909    0.73886   1.00
H1       0.80066    0.59948    0.77736   1.00
H1       0.80734    0.40152    0.77446   1.00
C6       0.84738    0.54485    0.80056   1.00
C6       0.85502    0.45881    0.78668   1.00
H2       0.83493    0.56655    0.82019   1.00
H2       0.85963    0.43690    0.76411   1.00
H2       0.86444    0.52714    0.82059   1.00
H2       0.88014    0.47772    0.78248   1.00
C6       0.87549    0.56394    0.76993   1.00
C6       0.85696    0.44058    0.82859   1.00
H2       0.85835    0.57708    0.74645   1.00
H2       0.82929    0.42617    0.83525   1.00
C6       0.90495    0.59541    0.78504   1.00
C6       0.89061    0.41089    0.83715   1.00
H2       0.89210    0.54051    0.75609   1.00
H2       0.85920    0.46454    0.84950   1.00
C6       0.88368    0.63265    0.79954   1.00
C6       0.88599    0.37292    0.81294   1.00
C6       0.93104    0.57926    0.81824   1.00
C6       0.93125    0.42893    0.82899   1.00
C6       0.93193    0.60755    0.75072   1.00
C6       0.88894    0.39946    0.88097   1.00
H2       0.86451    0.64442    0.77696   1.00
H2       0.85731    0.35980    0.81757   1.00
H2       0.86598    0.62670    0.82525   1.00
H2       0.88928    0.37846    0.78183   1.00
H2       0.90449    0.65541    0.80746   1.00
H2       0.90797    0.35137    0.82108   1.00
H2       0.95329    0.60045    0.82664   1.00
H2       0.95455    0.40902    0.83768   1.00
H2       0.91378    0.57275    0.84415   1.00
H2       0.93498    0.43506    0.79800   1.00
H2       0.94573    0.55255    0.80906   1.00
H2       0.93494    0.45615    0.84507   1.00
H2       0.91495    0.61958    0.72659   1.00
H2       0.86090    0.38617    0.88821   1.00
H2       0.95292    0.62975    0.75979   1.00
H2       0.91178    0.37851    0.88835   1.00
H2       0.94838    0.58261    0.73970   1.00
H2       0.89283    0.42498    0.89963   1.00
C4       0.75420    0.74770    0.51975   1.00
C4       0.75561    0.74834    0.47809   1.00
C3       0.73920    0.71527    0.54103   1.00
C3       0.74599    0.71516    0.45496   1.00
C3       0.76815    0.78050    0.54146   1.00
C3       0.76707    0.78325    0.45830   1.00
C2       0.75310    0.74555    0.60405   1.00
C2       0.75659    0.75019    0.39378   1.00
C3       0.73882    0.71408    0.58189   1.00
C3       0.74625    0.71603    0.41409   1.00
C3       0.76745    0.77803    0.58304   1.00
C3       0.76675    0.78300    0.41664   1.00
H1       0.72763    0.69146    0.52763   1.00
H1       0.73880    0.68898    0.46694   1.00
C5       0.78207    0.81464    0.52165   1.00
C5       0.77865    0.81709    0.48002   1.00
H1       0.72776    0.68978    0.59549   1.00
H1       0.73886    0.69116    0.39909   1.00
H1       0.77736    0.80066    0.59948   1.00
H1       0.77446    0.80734    0.40152   1.00
C6       0.80056    0.84738    0.54485   1.00
C6       0.78668    0.85502    0.45881   1.00
H2       0.82019    0.83493    0.56655   1.00
H2       0.76411    0.85963    0.43690   1.00
H2       0.82059    0.86444    0.52714   1.00
H2       0.78248    0.88014    0.47772   1.00
C6       0.76993    0.87549    0.56394   1.00
C6       0.82859    0.85696    0.44058   1.00
H2       0.74645    0.85835    0.57708   1.00
H2       0.83525    0.82929    0.42617   1.00
C6       0.78504    0.90495    0.59541   1.00
C6       0.83715    0.89061    0.41089   1.00
H2       0.75609    0.89210    0.54051   1.00
H2       0.84950    0.85920    0.46454   1.00
C6       0.79954    0.88368    0.63265   1.00
C6       0.81294    0.88599    0.37292   1.00
C6       0.81824    0.93104    0.57926   1.00
C6       0.82899    0.93125    0.42893   1.00
C6       0.75072    0.93193    0.60755   1.00
C6       0.88097    0.88894    0.39946   1.00
H2       0.77696    0.86451    0.64442   1.00
H2       0.81757    0.85731    0.35980   1.00
H2       0.82525    0.86598    0.62670   1.00
H2       0.78183    0.88928    0.37846   1.00
H2       0.80746    0.90449    0.65541   1.00
H2       0.82108    0.90797    0.35137   1.00
H2       0.82664    0.95329    0.60045   1.00
H2       0.83768    0.95455    0.40902   1.00
H2       0.84415    0.91378    0.57275   1.00
H2       0.79800    0.93498    0.43506   1.00
H2       0.80906    0.94573    0.55255   1.00
H2       0.84507    0.93494    0.45615   1.00
H2       0.72659    0.91495    0.61958   1.00
H2       0.88821    0.86090    0.38617   1.00
H2       0.75979    0.95292    0.62975   1.00
H2       0.88835    0.91178    0.37851   1.00
H2       0.73970    0.94838    0.58261   1.00
H2       0.89963    0.89283    0.42498   1.00
C4       0.25420    0.25230    0.98025   1.00
C4       0.25561    0.25166    1.02191   1.00
C3       0.23920    0.28473    0.95897   1.00
C3       0.24599    0.28484    1.04504   1.00
C3       0.26815    0.21950    0.95854   1.00
C3       0.26707    0.21675    1.04170   1.00
C2       0.25310    0.25445    0.89595   1.00
C2       0.25659    0.24981    1.10622   1.00
C3       0.23882    0.28592    0.91811   1.00
C3       0.24625    0.28397    1.08591   1.00
C3       0.26745    0.22197    0.91696   1.00
C3       0.26675    0.21700    1.08336   1.00
H1       0.22763    0.30854    0.97237   1.00
H1       0.23880    0.31102    1.03306   1.00
C5       0.28207    0.18536    0.97835   1.00
C5       0.27865    0.18291    1.01998   1.00
H1       0.22776    0.31022    0.90451   1.00
H1       0.23886    0.30884    1.10091   1.00
H1       0.27736    0.19934    0.90052   1.00
H1       0.27446    0.19266    1.09848   1.00
C6       0.30056    0.15262    0.95515   1.00
C6       0.28668    0.14498    1.04119   1.00
H2       0.32019    0.16507    0.93345   1.00
H2       0.26411    0.14037    1.06310   1.00
H2       0.32059    0.13556    0.97286   1.00
H2       0.28248    0.11986    1.02228   1.00
C6       0.26993    0.12451    0.93606   1.00
C6       0.32859    0.14304    1.05942   1.00
H2       0.24645    0.14165    0.92292   1.00
H2       0.33525    0.17071    1.07383   1.00
C6       0.28504    0.09505    0.90459   1.00
C6       0.33715    0.10939    1.08911   1.00
H2       0.25609    0.10790    0.95949   1.00
H2       0.34950    0.14080    1.03546   1.00
C6       0.29954    0.11632    0.86735   1.00
C6       0.31294    0.11401    1.12708   1.00
C6       0.31824    0.06896    0.92074   1.00
C6       0.32899    0.06875    1.07107   1.00
C6       0.25072    0.06807    0.89245   1.00
C6       0.38097    0.11106    1.10054   1.00
H2       0.27696    0.13549    0.85558   1.00
H2       0.31757    0.14269    1.14020   1.00
H2       0.32525    0.13402    0.87330   1.00
H2       0.28183    0.11072    1.12154   1.00
H2       0.30746    0.09551    0.84459   1.00
H2       0.32108    0.09203    1.14863   1.00
H2       0.32664    0.04671    0.89955   1.00
H2       0.33768    0.04545    1.09098   1.00
H2       0.34415    0.08622    0.92725   1.00
H2       0.29800    0.06502    1.06494   1.00
H2       0.30906    0.05427    0.94745   1.00
H2       0.34507    0.06506    1.04385   1.00
H2       0.22659    0.08505    0.88042   1.00
H2       0.38821    0.13910    1.11383   1.00
H2       0.25979    0.04708    0.87025   1.00
H2       0.38835    0.08822    1.12149   1.00
H2       0.23970    0.05162    0.91739   1.00
H2       0.39963    0.10717    1.07502   1.00
C4       0.25230    0.48025    0.75420   1.00
C4       0.25166    0.52191    0.75561   1.00
C3       0.28473    0.45897    0.73920   1.00
C3       0.28484    0.54504    0.74599   1.00
C3       0.21950    0.45854    0.76815   1.00
C3       0.21675    0.54170    0.76707   1.00
C2       0.25445    0.39595    0.75310   1.00
C2       0.24981    0.60622    0.75659   1.00
C3       0.28592    0.41811    0.73882   1.00
C3       0.28397    0.58591    0.74625   1.00
C3       0.22197    0.41696    0.76745   1.00
C3       0.21700    0.58336    0.76675   1.00
H1       0.30854    0.47237    0.72763   1.00
H1       0.31102    0.53306    0.73880   1.00
C5       0.18536    0.47835    0.78207   1.00
C5       0.18291    0.51998    0.77865   1.00
H1       0.31022    0.40451    0.72776   1.00
H1       0.30884    0.60091    0.73886   1.00
H1       0.19934    0.40052    0.77736   1.00
H1       0.19266    0.59848    0.77446   1.00
C6       0.15262    0.45515    0.80056   1.00
C6       0.14498    0.54119    0.78668   1.00
H2       0.16507    0.43345    0.82019   1.00
H2       0.14037    0.56310    0.76411   1.00
H2       0.13556    0.47286    0.82059   1.00
H2       0.11986    0.52228    0.78248   1.00
C6       0.12451    0.43606    0.76993   1.00
C6       0.14304    0.55942    0.82859   1.00
H2       0.14165    0.42292    0.74645   1.00
H2       0.17071    0.57383    0.83525   1.00
C6       0.09505    0.40459    0.78504   1.00
C6       0.10939    0.58911    0.83715   1.00
H2       0.10790    0.45949    0.75609   1.00
H2       0.14080    0.53546    0.84950   1.00
C6       0.11632    0.36735    0.79954   1.00
C6       0.11401    0.62708    0.81294   1.00
C6       0.06896    0.42074    0.81824   1.00
C6       0.06875    0.57107    0.82899   1.00
C6       0.06807    0.39245    0.75072   1.00
C6       0.11106    0.60054    0.88097   1.00
H2       0.13549    0.35558    0.77696   1.00
H2       0.14269    0.64020    0.81757   1.00
H2       0.13402    0.37330    0.82525   1.00
H2       0.11072    0.62154    0.78183   1.00
H2       0.09551    0.34459    0.80746   1.00
H2       0.09203    0.64863    0.82108   1.00
H2       0.04671    0.39955    0.82664   1.00
H2       0.04545    0.59098    0.83768   1.00
H2       0.08622    0.42725    0.84415   1.00
H2       0.06502    0.56494    0.79800   1.00
H2       0.05427    0.44745    0.80906   1.00
H2       0.06506    0.54385    0.84507   1.00
H2       0.08505    0.38042    0.72659   1.00
H2       0.13910    0.61383    0.88821   1.00
H2       0.04708    0.37025    0.75979   1.00
H2       0.08822    0.62149    0.88835   1.00
H2       0.05162    0.41739    0.73970   1.00
H2       0.10717    0.57502    0.89963   1.00
C4       0.01975    0.25420    0.74770   1.00
C4       -0.02191   0.25561    0.74834   1.00
C3       0.04103    0.23920    0.71527   1.00
C3       -0.04504   0.24599    0.71516   1.00
C3       0.04146    0.26815    0.78050   1.00
C3       -0.04170   0.26707    0.78325   1.00
C2       0.10405    0.25310    0.74555   1.00
C2       -0.10622   0.25659    0.75019   1.00
C3       0.08189    0.23882    0.71408   1.00
C3       -0.08591   0.24625    0.71603   1.00
C3       0.08304    0.26745    0.77803   1.00
C3       -0.08336   0.26675    0.78300   1.00
H1       0.02763    0.22763    0.69146   1.00
H1       -0.03306   0.23880    0.68898   1.00
C5       0.02165    0.28207    0.81464   1.00
C5       -0.01998   0.27865    0.81709   1.00
H1       0.09549    0.22776    0.68978   1.00
H1       -0.10091   0.23886    0.69116   1.00
H1       0.09948    0.27736    0.80066   1.00
H1       -0.09848   0.27446    0.80734   1.00
C6       0.04485    0.30056    0.84738   1.00
C6       -0.04119   0.28668    0.85502   1.00
H2       0.06655    0.32019    0.83493   1.00
H2       -0.06310   0.26411    0.85963   1.00
H2       0.02714    0.32059    0.86444   1.00
H2       -0.02228   0.28248    0.88014   1.00
C6       0.06394    0.26993    0.87549   1.00
C6       -0.05942   0.32859    0.85696   1.00
H2       0.07708    0.24645    0.85835   1.00
H2       -0.07383   0.33525    0.82929   1.00
C6       0.09541    0.28504    0.90495   1.00
C6       -0.08911   0.33715    0.89061   1.00
H2       0.04051    0.25609    0.89210   1.00
H2       -0.03546   0.34950    0.85920   1.00
C6       0.13265    0.29954    0.88368   1.00
C6       -0.12708   0.31294    0.88599   1.00
C6       0.07926    0.31824    0.93104   1.00
C6       -0.07107   0.32899    0.93125   1.00
C6       0.10755    0.25072    0.93193   1.00
C6       -0.10054   0.38097    0.88894   1.00
H2       0.14442    0.27696    0.86451   1.00
H2       -0.14020   0.31757    0.85731   1.00
H2       0.12670    0.32525    0.86598   1.00
H2       -0.12154   0.28183    0.88928   1.00
H2       0.15541    0.30746    0.90449   1.00
H2       -0.14863   0.32108    0.90797   1.00
H2       0.10045    0.32664    0.95329   1.00
H2       -0.09098   0.33768    0.95455   1.00
H2       0.07275    0.34415    0.91378   1.00
H2       -0.06494   0.29800    0.93498   1.00
H2       0.05255    0.30906    0.94573   1.00
H2       -0.04385   0.34507    0.93494   1.00
H2       0.11958    0.22659    0.91495   1.00
H2       -0.11383   0.38821    0.86090   1.00
H2       0.12975    0.25979    0.95292   1.00
H2       -0.12149   0.38835    0.91178   1.00
H2       0.08261    0.23970    0.94838   1.00
H2       -0.07502   0.39963    0.89283   1.00
C4       0.48025    0.25420    0.75230   1.00
C4       0.52191    0.25561    0.75166   1.00
C3       0.45897    0.23920    0.78473   1.00
C3       0.54504    0.24599    0.78484   1.00
C3       0.45854    0.26815    0.71950   1.00
C3       0.54170    0.26707    0.71675   1.00
C2       0.39595    0.25310    0.75445   1.00
C2       0.60622    0.25659    0.74981   1.00
C3       0.41811    0.23882    0.78592   1.00
C3       0.58591    0.24625    0.78397   1.00
C3       0.41696    0.26745    0.72197   1.00
C3       0.58336    0.26675    0.71700   1.00
H1       0.47237    0.22763    0.80854   1.00
H1       0.53306    0.23880    0.81102   1.00
C5       0.47835    0.28207    0.68536   1.00
C5       0.51998    0.27865    0.68291   1.00
H1       0.40451    0.22776    0.81022   1.00
H1       0.60091    0.23886    0.80884   1.00
H1       0.40052    0.27736    0.69934   1.00
H1       0.59848    0.27446    0.69266   1.00
C6       0.45515    0.30056    0.65262   1.00
C6       0.54119    0.28668    0.64498   1.00
H2       0.43345    0.32019    0.66507   1.00
H2       0.56310    0.26411    0.64037   1.00
H2       0.47286    0.32059    0.63556   1.00
H2       0.52228    0.28248    0.61986   1.00
C6       0.43606    0.26993    0.62451   1.00
C6       0.55942    0.32859    0.64304   1.00
H2       0.42292    0.24645    0.64165   1.00
H2       0.57383    0.33525    0.67071   1.00
C6       0.40459    0.28504    0.59505   1.00
C6       0.58911    0.33715    0.60939   1.00
H2       0.45949    0.25609    0.60790   1.00
H2       0.53546    0.34950    0.64080   1.00
C6       0.36735    0.29954    0.61632   1.00
C6       0.62708    0.31294    0.61401   1.00
C6       0.42074    0.31824    0.56896   1.00
C6       0.57107    0.32899    0.56875   1.00
C6       0.39245    0.25072    0.56807   1.00
C6       0.60054    0.38097    0.61106   1.00
H2       0.35558    0.27696    0.63549   1.00
H2       0.64020    0.31757    0.64269   1.00
H2       0.37330    0.32525    0.63402   1.00
H2       0.62154    0.28183    0.61072   1.00
H2       0.34459    0.30746    0.59551   1.00
H2       0.64863    0.32108    0.59203   1.00
H2       0.39955    0.32664    0.54671   1.00
H2       0.59098    0.33768    0.54545   1.00
H2       0.42725    0.34415    0.58622   1.00
H2       0.56494    0.29800    0.56502   1.00
H2       0.44745    0.30906    0.55427   1.00
H2       0.54385    0.34507    0.56506   1.00
H2       0.38042    0.22659    0.58505   1.00
H2       0.61383    0.38821    0.63910   1.00
H2       0.37025    0.25979    0.54708   1.00
H2       0.62149    0.38835    0.58822   1.00
H2       0.41739    0.23970    0.55162   1.00
H2       0.57502    0.39963    0.60717   1.00
C4       0.24770    0.01975    0.75420   1.00
C4       0.24834    -0.02191   0.75561   1.00
C3       0.21527    0.04103    0.73920   1.00
C3       0.21516    -0.04504   0.74599   1.00
C3       0.28050    0.04146    0.76815   1.00
C3       0.28325    -0.04170   0.76707   1.00
C2       0.24555    0.10405    0.75310   1.00
C2       0.25019    -0.10622   0.75659   1.00
C3       0.21408    0.08189    0.73882   1.00
C3       0.21603    -0.08591   0.74625   1.00
C3       0.27803    0.08304    0.76745   1.00
C3       0.28300    -0.08336   0.76675   1.00
H1       0.19146    0.02763    0.72763   1.00
H1       0.18898    -0.03306   0.73880   1.00
C5       0.31464    0.02165    0.78207   1.00
C5       0.31709    -0.01998   0.77865   1.00
H1       0.18978    0.09549    0.72776   1.00
H1       0.19116    -0.10091   0.73886   1.00
H1       0.30066    0.09948    0.77736   1.00
H1       0.30734    -0.09848   0.77446   1.00
C6       0.34738    0.04485    0.80056   1.00
C6       0.35502    -0.04119   0.78668   1.00
H2       0.33493    0.06655    0.82019   1.00
H2       0.35963    -0.06310   0.76411   1.00
H2       0.36444    0.02714    0.82059   1.00
H2       0.38014    -0.02228   0.78248   1.00
C6       0.37549    0.06394    0.76993   1.00
C6       0.35696    -0.05942   0.82859   1.00
H2       0.35835    0.07708    0.74645   1.00
H2       0.32929    -0.07383   0.83525   1.00
C6       0.40495    0.09541    0.78504   1.00
C6       0.39061    -0.08911   0.83715   1.00
H2       0.39210    0.04051    0.75609   1.00
H2       0.35920    -0.03546   0.84950   1.00
C6       0.38368    0.13265    0.79954   1.00
C6       0.38599    -0.12708   0.81294   1.00
C6       0.43104    0.07926    0.81824   1.00
C6       0.43125    -0.07107   0.82899   1.00
C6       0.43193    0.10755    0.75072   1.00
C6       0.38894    -0.10054   0.88097   1.00
H2       0.36451    0.14442    0.77696   1.00
H2       0.35731    -0.14020   0.81757   1.00
H2       0.36598    0.12670    0.82525   1.00
H2       0.38928    -0.12154   0.78183   1.00
H2       0.40449    0.15541    0.80746   1.00
H2       0.40797    -0.14863   0.82108   1.00
H2       0.45329    0.10045    0.82664   1.00
H2       0.45455    -0.09098   0.83768   1.00
H2       0.41378    0.07275    0.84415   1.00
H2       0.43498    -0.06494   0.79800   1.00
H2       0.44573    0.05255    0.80906   1.00
H2       0.43494    -0.04385   0.84507   1.00
H2       0.41495    0.11958    0.72659   1.00
H2       0.36090    -0.11383   0.88821   1.00
H2       0.45292    0.12975    0.75979   1.00
H2       0.41178    -0.12149   0.88835   1.00
H2       0.44838    0.08261    0.73970   1.00
H2       0.39283    -0.07502   0.89963   1.00
C4       0.25420    0.24770    0.51975   1.00
C4       0.25561    0.24834    0.47809   1.00
C3       0.23920    0.21527    0.54103   1.00
C3       0.24599    0.21516    0.45496   1.00
C3       0.26815    0.28050    0.54146   1.00
C3       0.26707    0.28325    0.45830   1.00
C2       0.25310    0.24555    0.60405   1.00
C2       0.25659    0.25019    0.39378   1.00
C3       0.23882    0.21408    0.58189   1.00
C3       0.24625    0.21603    0.41409   1.00
C3       0.26745    0.27803    0.58304   1.00
C3       0.26675    0.28300    0.41664   1.00
H1       0.22763    0.19146    0.52763   1.00
H1       0.23880    0.18898    0.46694   1.00
C5       0.28207    0.31464    0.52165   1.00
C5       0.27865    0.31709    0.48002   1.00
H1       0.22776    0.18978    0.59549   1.00
H1       0.23886    0.19116    0.39909   1.00
H1       0.27736    0.30066    0.59948   1.00
H1       0.27446    0.30734    0.40152   1.00
C6       0.30056    0.34738    0.54485   1.00
C6       0.28668    0.35502    0.45881   1.00
H2       0.32019    0.33493    0.56655   1.00
H2       0.26411    0.35963    0.43690   1.00
H2       0.32059    0.36444    0.52714   1.00
H2       0.28248    0.38014    0.47772   1.00
C6       0.26993    0.37549    0.56394   1.00
C6       0.32859    0.35696    0.44058   1.00
H2       0.24645    0.35835    0.57708   1.00
H2       0.33525    0.32929    0.42617   1.00
C6       0.28504    0.40495    0.59541   1.00
C6       0.33715    0.39061    0.41089   1.00
H2       0.25609    0.39210    0.54051   1.00
H2       0.34950    0.35920    0.46454   1.00
C6       0.29954    0.38368    0.63265   1.00
C6       0.31294    0.38599    0.37292   1.00
C6       0.31824    0.43104    0.57926   1.00
C6       0.32899    0.43125    0.42893   1.00
C6       0.25072    0.43193    0.60755   1.00
C6       0.38097    0.38894    0.39946   1.00
H2       0.27696    0.36451    0.64442   1.00
H2       0.31757    0.35731    0.35980   1.00
H2       0.32525    0.36598    0.62670   1.00
H2       0.28183    0.38928    0.37846   1.00
H2       0.30746    0.40449    0.65541   1.00
H2       0.32108    0.40797    0.35137   1.00
H2       0.32664    0.45329    0.60045   1.00
H2       0.33768    0.45455    0.40902   1.00
H2       0.34415    0.41378    0.57275   1.00
H2       0.29800    0.43498    0.43506   1.00
H2       0.30906    0.44573    0.55255   1.00
H2       0.34507    0.43494    0.45615   1.00
H2       0.22659    0.41495    0.61958   1.00
H2       0.38821    0.36090    0.38617   1.00
H2       0.25979    0.45292    0.62975   1.00
H2       0.38835    0.41178    0.37851   1.00
H2       0.23970    0.44838    0.58261   1.00
H2       0.39963    0.39283    0.42498   1.00
C4       0.25420    0.75230    0.48025   1.00
C4       0.25561    0.75166    0.52191   1.00
C3       0.23920    0.78473    0.45897   1.00
C3       0.24599    0.78484    0.54504   1.00
C3       0.26815    0.71950    0.45854   1.00
C3       0.26707    0.71675    0.54170   1.00
C2       0.25310    0.75445    0.39595   1.00
C2       0.25659    0.74981    0.60622   1.00
C3       0.23882    0.78592    0.41811   1.00
C3       0.24625    0.78397    0.58591   1.00
C3       0.26745    0.72197    0.41696   1.00
C3       0.26675    0.71700    0.58336   1.00
H1       0.22763    0.80854    0.47237   1.00
H1       0.23880    0.81102    0.53306   1.00
C5       0.28207    0.68536    0.47835   1.00
C5       0.27865    0.68291    0.51998   1.00
H1       0.22776    0.81022    0.40451   1.00
H1       0.23886    0.80884    0.60091   1.00
H1       0.27736    0.69934    0.40052   1.00
H1       0.27446    0.69266    0.59848   1.00
C6       0.30056    0.65262    0.45515   1.00
C6       0.28668    0.64498    0.54119   1.00
H2       0.32019    0.66507    0.43345   1.00
H2       0.26411    0.64037    0.56310   1.00
H2       0.32059    0.63556    0.47286   1.00
H2       0.28248    0.61986    0.52228   1.00
C6       0.26993    0.62451    0.43606   1.00
C6       0.32859    0.64304    0.55942   1.00
H2       0.24645    0.64165    0.42292   1.00
H2       0.33525    0.67071    0.57383   1.00
C6       0.28504    0.59505    0.40459   1.00
C6       0.33715    0.60939    0.58911   1.00
H2       0.25609    0.60790    0.45949   1.00
H2       0.34950    0.64080    0.53546   1.00
C6       0.29954    0.61632    0.36735   1.00
C6       0.31294    0.61401    0.62708   1.00
C6       0.31824    0.56896    0.42074   1.00
C6       0.32899    0.56875    0.57107   1.00
C6       0.25072    0.56807    0.39245   1.00
C6       0.38097    0.61106    0.60054   1.00
H2       0.27696    0.63549    0.35558   1.00
H2       0.31757    0.64269    0.64020   1.00
H2       0.32525    0.63402    0.37330   1.00
H2       0.28183    0.61072    0.62154   1.00
H2       0.30746    0.59551    0.34459   1.00
H2       0.32108    0.59203    0.64863   1.00
H2       0.32664    0.54671    0.39955   1.00
H2       0.33768    0.54545    0.59098   1.00
H2       0.34415    0.58622    0.42725   1.00
H2       0.29800    0.56502    0.56494   1.00
H2       0.30906    0.55427    0.44745   1.00
H2       0.34507    0.56506    0.54385   1.00
H2       0.22659    0.58505    0.38042   1.00
H2       0.38821    0.63910    0.61383   1.00
H2       0.25979    0.54708    0.37025   1.00
H2       0.38835    0.58822    0.62149   1.00
H2       0.23970    0.55162    0.41739   1.00
H2       0.39963    0.60717    0.57502   1.00
C4       0.25230    0.98025    0.25420   1.00
C4       0.25166    1.02191    0.25561   1.00
C3       0.28473    0.95897    0.23920   1.00
C3       0.28484    1.04504    0.24599   1.00
C3       0.21950    0.95854    0.26815   1.00
C3       0.21675    1.04170    0.26707   1.00
C2       0.25445    0.89595    0.25310   1.00
C2       0.24981    1.10622    0.25659   1.00
C3       0.28592    0.91811    0.23882   1.00
C3       0.28397    1.08591    0.24625   1.00
C3       0.22197    0.91696    0.26745   1.00
C3       0.21700    1.08336    0.26675   1.00
H1       0.30854    0.97237    0.22763   1.00
H1       0.31102    1.03306    0.23880   1.00
C5       0.18536    0.97835    0.28207   1.00
C5       0.18291    1.01998    0.27865   1.00
H1       0.31022    0.90451    0.22776   1.00
H1       0.30884    1.10091    0.23886   1.00
H1       0.19934    0.90052    0.27736   1.00
H1       0.19266    1.09848    0.27446   1.00
C6       0.15262    0.95515    0.30056   1.00
C6       0.14498    1.04119    0.28668   1.00
H2       0.16507    0.93345    0.32019   1.00
H2       0.14037    1.06310    0.26411   1.00
H2       0.13556    0.97286    0.32059   1.00
H2       0.11986    1.02228    0.28248   1.00
C6       0.12451    0.93606    0.26993   1.00
C6       0.14304    1.05942    0.32859   1.00
H2       0.14165    0.92292    0.24645   1.00
H2       0.17071    1.07383    0.33525   1.00
C6       0.09505    0.90459    0.28504   1.00
C6       0.10939    1.08911    0.33715   1.00
H2       0.10790    0.95949    0.25609   1.00
H2       0.14080    1.03546    0.34950   1.00
C6       0.11632    0.86735    0.29954   1.00
C6       0.11401    1.12708    0.31294   1.00
C6       0.06896    0.92074    0.31824   1.00
C6       0.06875    1.07107    0.32899   1.00
C6       0.06807    0.89245    0.25072   1.00
C6       0.11106    1.10054    0.38097   1.00
H2       0.13549    0.85558    0.27696   1.00
H2       0.14269    1.14020    0.31757   1.00
H2       0.13402    0.87330    0.32525   1.00
H2       0.11072    1.12154    0.28183   1.00
H2       0.09551    0.84459    0.30746   1.00
H2       0.09203    1.14863    0.32108   1.00
H2       0.04671    0.89955    0.32664   1.00
H2       0.04545    1.09098    0.33768   1.00
H2       0.08622    0.92725    0.34415   1.00
H2       0.06502    1.06494    0.29800   1.00
H2       0.05427    0.94745    0.30906   1.00
H2       0.06506    1.04385    0.34507   1.00
H2       0.08505    0.88042    0.22659   1.00
H2       0.13910    1.11383    0.38821   1.00
H2       0.04708    0.87025    0.25979   1.00
H2       0.08822    1.12149    0.38835   1.00
H2       0.05162    0.91739    0.23970   1.00
H2       0.10717    1.07502    0.39963   1.00
C4       0.01975    0.75420    0.24770   1.00
C4       -0.02191   0.75561    0.24834   1.00
C3       0.04103    0.73920    0.21527   1.00
C3       -0.04504   0.74599    0.21516   1.00
C3       0.04146    0.76815    0.28050   1.00
C3       -0.04170   0.76707    0.28325   1.00
C2       0.10405    0.75310    0.24555   1.00
C2       -0.10622   0.75659    0.25019   1.00
C3       0.08189    0.73882    0.21408   1.00
C3       -0.08591   0.74625    0.21603   1.00
C3       0.08304    0.76745    0.27803   1.00
C3       -0.08336   0.76675    0.28300   1.00
H1       0.02763    0.72763    0.19146   1.00
H1       -0.03306   0.73880    0.18898   1.00
C5       0.02165    0.78207    0.31464   1.00
C5       -0.01998   0.77865    0.31709   1.00
H1       0.09549    0.72776    0.18978   1.00
H1       -0.10091   0.73886    0.19116   1.00
H1       0.09948    0.77736    0.30066   1.00
H1       -0.09848   0.77446    0.30734   1.00
C6       0.04485    0.80056    0.34738   1.00
C6       -0.04119   0.78668    0.35502   1.00
H2       0.06655    0.82019    0.33493   1.00
H2       -0.06310   0.76411    0.35963   1.00
H2       0.02714    0.82059    0.36444   1.00
H2       -0.02228   0.78248    0.38014   1.00
C6       0.06394    0.76993    0.37549   1.00
C6       -0.05942   0.82859    0.35696   1.00
H2       0.07708    0.74645    0.35835   1.00
H2       -0.07383   0.83525    0.32929   1.00
C6       0.09541    0.78504    0.40495   1.00
C6       -0.08911   0.83715    0.39061   1.00
H2       0.04051    0.75609    0.39210   1.00
H2       -0.03546   0.84950    0.35920   1.00
C6       0.13265    0.79954    0.38368   1.00
C6       -0.12708   0.81294    0.38599   1.00
C6       0.07926    0.81824    0.43104   1.00
C6       -0.07107   0.82899    0.43125   1.00
C6       0.10755    0.75072    0.43193   1.00
C6       -0.10054   0.88097    0.38894   1.00
H2       0.14442    0.77696    0.36451   1.00
H2       -0.14020   0.81757    0.35731   1.00
H2       0.12670    0.82525    0.36598   1.00
H2       -0.12154   0.78183    0.38928   1.00
H2       0.15541    0.80746    0.40449   1.00
H2       -0.14863   0.82108    0.40797   1.00
H2       0.10045    0.82664    0.45329   1.00
H2       -0.09098   0.83768    0.45455   1.00
H2       0.07275    0.84415    0.41378   1.00
H2       -0.06494   0.79800    0.43498   1.00
H2       0.05255    0.80906    0.44573   1.00
H2       -0.04385   0.84507    0.43494   1.00
H2       0.11958    0.72659    0.41495   1.00
H2       -0.11383   0.88821    0.36090   1.00
H2       0.12975    0.75979    0.45292   1.00
H2       -0.12149   0.88835    0.41178   1.00
H2       0.08261    0.73970    0.44838   1.00
H2       -0.07502   0.89963    0.39283   1.00
C4       0.48025    0.75420    0.25230   1.00
C4       0.52191    0.75561    0.25166   1.00
C3       0.45897    0.73920    0.28473   1.00
C3       0.54504    0.74599    0.28484   1.00
C3       0.45854    0.76815    0.21950   1.00
C3       0.54170    0.76707    0.21675   1.00
C2       0.39595    0.75310    0.25445   1.00
C2       0.60622    0.75659    0.24981   1.00
C3       0.41811    0.73882    0.28592   1.00
C3       0.58591    0.74625    0.28397   1.00
C3       0.41696    0.76745    0.22197   1.00
C3       0.58336    0.76675    0.21700   1.00
H1       0.47237    0.72763    0.30854   1.00
H1       0.53306    0.73880    0.31102   1.00
C5       0.47835    0.78207    0.18536   1.00
C5       0.51998    0.77865    0.18291   1.00
H1       0.40451    0.72776    0.31022   1.00
H1       0.60091    0.73886    0.30884   1.00
H1       0.40052    0.77736    0.19934   1.00
H1       0.59848    0.77446    0.19266   1.00
C6       0.45515    0.80056    0.15262   1.00
C6       0.54119    0.78668    0.14498   1.00
H2       0.43345    0.82019    0.16507   1.00
H2       0.56310    0.76411    0.14037   1.00
H2       0.47286    0.82059    0.13556   1.00
H2       0.52228    0.78248    0.11986   1.00
C6       0.43606    0.76993    0.12451   1.00
C6       0.55942    0.82859    0.14304   1.00
H2       0.42292    0.74645    0.14165   1.00
H2       0.57383    0.83525    0.17071   1.00
C6       0.40459    0.78504    0.09505   1.00
C6       0.58911    0.83715    0.10939   1.00
H2       0.45949    0.75609    0.10790   1.00
H2       0.53546    0.84950    0.14080   1.00
C6       0.36735    0.79954    0.11632   1.00
C6       0.62708    0.81294    0.11401   1.00
C6       0.42074    0.81824    0.06896   1.00
C6       0.57107    0.82899    0.06875   1.00
C6       0.39245    0.75072    0.06807   1.00
C6       0.60054    0.88097    0.11106   1.00
H2       0.35558    0.77696    0.13549   1.00
H2       0.64020    0.81757    0.14269   1.00
H2       0.37330    0.82525    0.13402   1.00
H2       0.62154    0.78183    0.11072   1.00
H2       0.34459    0.80746    0.09551   1.00
H2       0.64863    0.82108    0.09203   1.00
H2       0.39955    0.82664    0.04671   1.00
H2       0.59098    0.83768    0.04545   1.00
H2       0.42725    0.84415    0.08622   1.00
H2       0.56494    0.79800    0.06502   1.00
H2       0.44745    0.80906    0.05427   1.00
H2       0.54385    0.84507    0.06506   1.00
H2       0.38042    0.72659    0.08505   1.00
H2       0.61383    0.88821    0.13910   1.00
H2       0.37025    0.75979    0.04708   1.00
H2       0.62149    0.88835    0.08822   1.00
H2       0.41739    0.73970    0.05162   1.00
H2       0.57502    0.89963    0.10717   1.00
C4       0.24770    0.51975    0.25420   1.00
C4       0.24834    0.47809    0.25561   1.00
C3       0.21527    0.54103    0.23920   1.00
C3       0.21516    0.45496    0.24599   1.00
C3       0.28050    0.54146    0.26815   1.00
C3       0.28325    0.45830    0.26707   1.00
C2       0.24555    0.60405    0.25310   1.00
C2       0.25019    0.39378    0.25659   1.00
C3       0.21408    0.58189    0.23882   1.00
C3       0.21603    0.41409    0.24625   1.00
C3       0.27803    0.58304    0.26745   1.00
C3       0.28300    0.41664    0.26675   1.00
H1       0.19146    0.52763    0.22763   1.00
H1       0.18898    0.46694    0.23880   1.00
C5       0.31464    0.52165    0.28207   1.00
C5       0.31709    0.48002    0.27865   1.00
H1       0.18978    0.59549    0.22776   1.00
H1       0.19116    0.39909    0.23886   1.00
H1       0.30066    0.59948    0.27736   1.00
H1       0.30734    0.40152    0.27446   1.00
C6       0.34738    0.54485    0.30056   1.00
C6       0.35502    0.45881    0.28668   1.00
H2       0.33493    0.56655    0.32019   1.00
H2       0.35963    0.43690    0.26411   1.00
H2       0.36444    0.52714    0.32059   1.00
H2       0.38014    0.47772    0.28248   1.00
C6       0.37549    0.56394    0.26993   1.00
C6       0.35696    0.44058    0.32859   1.00
H2       0.35835    0.57708    0.24645   1.00
H2       0.32929    0.42617    0.33525   1.00
C6       0.40495    0.59541    0.28504   1.00
C6       0.39061    0.41089    0.33715   1.00
H2       0.39210    0.54051    0.25609   1.00
H2       0.35920    0.46454    0.34950   1.00
C6       0.38368    0.63265    0.29954   1.00
C6       0.38599    0.37292    0.31294   1.00
C6       0.43104    0.57926    0.31824   1.00
C6       0.43125    0.42893    0.32899   1.00
C6       0.43193    0.60755    0.25072   1.00
C6       0.38894    0.39946    0.38097   1.00
H2       0.36451    0.64442    0.27696   1.00
H2       0.35731    0.35980    0.31757   1.00
H2       0.36598    0.62670    0.32525   1.00
H2       0.38928    0.37846    0.28183   1.00
H2       0.40449    0.65541    0.30746   1.00
H2       0.40797    0.35137    0.32108   1.00
H2       0.45329    0.60045    0.32664   1.00
H2       0.45455    0.40902    0.33768   1.00
H2       0.41378    0.57275    0.34415   1.00
H2       0.43498    0.43506    0.29800   1.00
H2       0.44573    0.55255    0.30906   1.00
H2       0.43494    0.45615    0.34507   1.00
H2       0.41495    0.61958    0.22659   1.00
H2       0.36090    0.38617    0.38821   1.00
H2       0.45292    0.62975    0.25979   1.00
H2       0.41178    0.37851    0.38835   1.00
H2       0.44838    0.58261    0.23970   1.00
H2       0.39283    0.42498    0.39963   1.00
C4       0.25420    0.74770    0.01975   1.00
C4       0.25561    0.74834    -0.02191   1.00
C3       0.23920    0.71527    0.04103   1.00
C3       0.24599    0.71516    -0.04504   1.00
C3       0.26815    0.78050    0.04146   1.00
C3       0.26707    0.78325    -0.04170   1.00
C2       0.25310    0.74555    0.10405   1.00
C2       0.25659    0.75019    -0.10622   1.00
C3       0.23882    0.71408    0.08189   1.00
C3       0.24625    0.71603    -0.08591   1.00
C3       0.26745    0.77803    0.08304   1.00
C3       0.26675    0.78300    -0.08336   1.00
H1       0.22763    0.69146    0.02763   1.00
H1       0.23880    0.68898    -0.03306   1.00
C5       0.28207    0.81464    0.02165   1.00
C5       0.27865    0.81709    -0.01998   1.00
H1       0.22776    0.68978    0.09549   1.00
H1       0.23886    0.69116    -0.10091   1.00
H1       0.27736    0.80066    0.09948   1.00
H1       0.27446    0.80734    -0.09848   1.00
C6       0.30056    0.84738    0.04485   1.00
C6       0.28668    0.85502    -0.04119   1.00
H2       0.32019    0.83493    0.06655   1.00
H2       0.26411    0.85963    -0.06310   1.00
H2       0.32059    0.86444    0.02714   1.00
H2       0.28248    0.88014    -0.02228   1.00
C6       0.26993    0.87549    0.06394   1.00
C6       0.32859    0.85696    -0.05942   1.00
H2       0.24645    0.85835    0.07708   1.00
H2       0.33525    0.82929    -0.07383   1.00
C6       0.28504    0.90495    0.09541   1.00
C6       0.33715    0.89061    -0.08911   1.00
H2       0.25609    0.89210    0.04051   1.00
H2       0.34950    0.85920    -0.03546   1.00
C6       0.29954    0.88368    0.13265   1.00
C6       0.31294    0.88599    -0.12708   1.00
C6       0.31824    0.93104    0.07926   1.00
C6       0.32899    0.93125    -0.07107   1.00
C6       0.25072    0.93193    0.10755   1.00
C6       0.38097    0.88894    -0.10054   1.00
H2       0.27696    0.86451    0.14442   1.00
H2       0.31757    0.85731    -0.14020   1.00
H2       0.32525    0.86598    0.12670   1.00
H2       0.28183    0.88928    -0.12154   1.00
H2       0.30746    0.90449    0.15541   1.00
H2       0.32108    0.90797    -0.14863   1.00
H2       0.32664    0.95329    0.10045   1.00
H2       0.33768    0.95455    -0.09098   1.00
H2       0.34415    0.91378    0.07275   1.00
H2       0.29800    0.93498    -0.06494   1.00
H2       0.30906    0.94573    0.05255   1.00
H2       0.34507    0.93494    -0.04385   1.00
H2       0.22659    0.91495    0.11958   1.00
H2       0.38821    0.86090    -0.11383   1.00
H2       0.25979    0.95292    0.12975   1.00
H2       0.38835    0.91178    -0.12149   1.00
H2       0.23970    0.94838    0.08261   1.00
H2       0.39963    0.89283    -0.07502   1.00
C4       0.75420    0.25230    0.48025   1.00
C4       0.75561    0.25166    0.52191   1.00
C3       0.73920    0.28473    0.45897   1.00
C3       0.74599    0.28484    0.54504   1.00
C3       0.76815    0.21950    0.45854   1.00
C3       0.76707    0.21675    0.54170   1.00
C2       0.75310    0.25445    0.39595   1.00
C2       0.75659    0.24981    0.60622   1.00
C3       0.73882    0.28592    0.41811   1.00
C3       0.74625    0.28397    0.58591   1.00
C3       0.76745    0.22197    0.41696   1.00
C3       0.76675    0.21700    0.58336   1.00
H1       0.72763    0.30854    0.47237   1.00
H1       0.73880    0.31102    0.53306   1.00
C5       0.78207    0.18536    0.47835   1.00
C5       0.77865    0.18291    0.51998   1.00
H1       0.72776    0.31022    0.40451   1.00
H1       0.73886    0.30884    0.60091   1.00
H1       0.77736    0.19934    0.40052   1.00
H1       0.77446    0.19266    0.59848   1.00
C6       0.80056    0.15262    0.45515   1.00
C6       0.78668    0.14498    0.54119   1.00
H2       0.82019    0.16507    0.43345   1.00
H2       0.76411    0.14037    0.56310   1.00
H2       0.82059    0.13556    0.47286   1.00
H2       0.78248    0.11986    0.52228   1.00
C6       0.76993    0.12451    0.43606   1.00
C6       0.82859    0.14304    0.55942   1.00
H2       0.74645    0.14165    0.42292   1.00
H2       0.83525    0.17071    0.57383   1.00
C6       0.78504    0.09505    0.40459   1.00
C6       0.83715    0.10939    0.58911   1.00
H2       0.75609    0.10790    0.45949   1.00
H2       0.84950    0.14080    0.53546   1.00
C6       0.79954    0.11632    0.36735   1.00
C6       0.81294    0.11401    0.62708   1.00
C6       0.81824    0.06896    0.42074   1.00
C6       0.82899    0.06875    0.57107   1.00
C6       0.75072    0.06807    0.39245   1.00
C6       0.88097    0.11106    0.60054   1.00
H2       0.77696    0.13549    0.35558   1.00
H2       0.81757    0.14269    0.64020   1.00
H2       0.82525    0.13402    0.37330   1.00
H2       0.78183    0.11072    0.62154   1.00
H2       0.80746    0.09551    0.34459   1.00
H2       0.82108    0.09203    0.64863   1.00
H2       0.82664    0.04671    0.39955   1.00
H2       0.83768    0.04545    0.59098   1.00
H2       0.84415    0.08622    0.42725   1.00
H2       0.79800    0.06502    0.56494   1.00
H2       0.80906    0.05427    0.44745   1.00
H2       0.84507    0.06506    0.54385   1.00
H2       0.72659    0.08505    0.38042   1.00
H2       0.88821    0.13910    0.61383   1.00
H2       0.75979    0.04708    0.37025   1.00
H2       0.88835    0.08822    0.62149   1.00
H2       0.73970    0.05162    0.41739   1.00
H2       0.89963    0.10717    0.57502   1.00
C4       0.75230    0.48025    0.25420   1.00
C4       0.75166    0.52191    0.25561   1.00
C3       0.78473    0.45897    0.23920   1.00
C3       0.78484    0.54504    0.24599   1.00
C3       0.71950    0.45854    0.26815   1.00
C3       0.71675    0.54170    0.26707   1.00
C2       0.75445    0.39595    0.25310   1.00
C2       0.74981    0.60622    0.25659   1.00
C3       0.78592    0.41811    0.23882   1.00
C3       0.78397    0.58591    0.24625   1.00
C3       0.72197    0.41696    0.26745   1.00
C3       0.71700    0.58336    0.26675   1.00
H1       0.80854    0.47237    0.22763   1.00
H1       0.81102    0.53306    0.23880   1.00
C5       0.68536    0.47835    0.28207   1.00
C5       0.68291    0.51998    0.27865   1.00
H1       0.81022    0.40451    0.22776   1.00
H1       0.80884    0.60091    0.23886   1.00
H1       0.69934    0.40052    0.27736   1.00
H1       0.69266    0.59848    0.27446   1.00
C6       0.65262    0.45515    0.30056   1.00
C6       0.64498    0.54119    0.28668   1.00
H2       0.66507    0.43345    0.32019   1.00
H2       0.64037    0.56310    0.26411   1.00
H2       0.63556    0.47286    0.32059   1.00
H2       0.61986    0.52228    0.28248   1.00
C6       0.62451    0.43606    0.26993   1.00
C6       0.64304    0.55942    0.32859   1.00
H2       0.64165    0.42292    0.24645   1.00
H2       0.67071    0.57383    0.33525   1.00
C6       0.59505    0.40459    0.28504   1.00
C6       0.60939    0.58911    0.33715   1.00
H2       0.60790    0.45949    0.25609   1.00
H2       0.64080    0.53546    0.34950   1.00
C6       0.61632    0.36735    0.29954   1.00
C6       0.61401    0.62708    0.31294   1.00
C6       0.56896    0.42074    0.31824   1.00
C6       0.56875    0.57107    0.32899   1.00
C6       0.56807    0.39245    0.25072   1.00
C6       0.61106    0.60054    0.38097   1.00
H2       0.63549    0.35558    0.27696   1.00
H2       0.64269    0.64020    0.31757   1.00
H2       0.63402    0.37330    0.32525   1.00
H2       0.61072    0.62154    0.28183   1.00
H2       0.59551    0.34459    0.30746   1.00
H2       0.59203    0.64863    0.32108   1.00
H2       0.54671    0.39955    0.32664   1.00
H2       0.54545    0.59098    0.33768   1.00
H2       0.58622    0.42725    0.34415   1.00
H2       0.56502    0.56494    0.29800   1.00
H2       0.55427    0.44745    0.30906   1.00
H2       0.56506    0.54385    0.34507   1.00
H2       0.58505    0.38042    0.22659   1.00
H2       0.63910    0.61383    0.38821   1.00
H2       0.54708    0.37025    0.25979   1.00
H2       0.58822    0.62149    0.38835   1.00
H2       0.55162    0.41739    0.23970   1.00
H2       0.60717    0.57502    0.39963   1.00
C4       0.51975    0.25420    0.24770   1.00
C4       0.47809    0.25561    0.24834   1.00
C3       0.54103    0.23920    0.21527   1.00
C3       0.45496    0.24599    0.21516   1.00
C3       0.54146    0.26815    0.28050   1.00
C3       0.45830    0.26707    0.28325   1.00
C2       0.60405    0.25310    0.24555   1.00
C2       0.39378    0.25659    0.25019   1.00
C3       0.58189    0.23882    0.21408   1.00
C3       0.41409    0.24625    0.21603   1.00
C3       0.58304    0.26745    0.27803   1.00
C3       0.41664    0.26675    0.28300   1.00
H1       0.52763    0.22763    0.19146   1.00
H1       0.46694    0.23880    0.18898   1.00
C5       0.52165    0.28207    0.31464   1.00
C5       0.48002    0.27865    0.31709   1.00
H1       0.59549    0.22776    0.18978   1.00
H1       0.39909    0.23886    0.19116   1.00
H1       0.59948    0.27736    0.30066   1.00
H1       0.40152    0.27446    0.30734   1.00
C6       0.54485    0.30056    0.34738   1.00
C6       0.45881    0.28668    0.35502   1.00
H2       0.56655    0.32019    0.33493   1.00
H2       0.43690    0.26411    0.35963   1.00
H2       0.52714    0.32059    0.36444   1.00
H2       0.47772    0.28248    0.38014   1.00
C6       0.56394    0.26993    0.37549   1.00
C6       0.44058    0.32859    0.35696   1.00
H2       0.57708    0.24645    0.35835   1.00
H2       0.42617    0.33525    0.32929   1.00
C6       0.59541    0.28504    0.40495   1.00
C6       0.41089    0.33715    0.39061   1.00
H2       0.54051    0.25609    0.39210   1.00
H2       0.46454    0.34950    0.35920   1.00
C6       0.63265    0.29954    0.38368   1.00
C6       0.37292    0.31294    0.38599   1.00
C6       0.57926    0.31824    0.43104   1.00
C6       0.42893    0.32899    0.43125   1.00
C6       0.60755    0.25072    0.43193   1.00
C6       0.39946    0.38097    0.38894   1.00
H2       0.64442    0.27696    0.36451   1.00
H2       0.35980    0.31757    0.35731   1.00
H2       0.62670    0.32525    0.36598   1.00
H2       0.37846    0.28183    0.38928   1.00
H2       0.65541    0.30746    0.40449   1.00
H2       0.35137    0.32108    0.40797   1.00
H2       0.60045    0.32664    0.45329   1.00
H2       0.40902    0.33768    0.45455   1.00
H2       0.57275    0.34415    0.41378   1.00
H2       0.43506    0.29800    0.43498   1.00
H2       0.55255    0.30906    0.44573   1.00
H2       0.45615    0.34507    0.43494   1.00
H2       0.61958    0.22659    0.41495   1.00
H2       0.38617    0.38821    0.36090   1.00
H2       0.62975    0.25979    0.45292   1.00
H2       0.37851    0.38835    0.41178   1.00
H2       0.58261    0.23970    0.44838   1.00
H2       0.42498    0.39963    0.39283   1.00
C4       0.98025    0.25420    0.25230   1.00
C4       1.02191    0.25561    0.25166   1.00
C3       0.95897    0.23920    0.28473   1.00
C3       1.04504    0.24599    0.28484   1.00
C3       0.95854    0.26815    0.21950   1.00
C3       1.04170    0.26707    0.21675   1.00
C2       0.89595    0.25310    0.25445   1.00
C2       1.10622    0.25659    0.24981   1.00
C3       0.91811    0.23882    0.28592   1.00
C3       1.08591    0.24625    0.28397   1.00
C3       0.91696    0.26745    0.22197   1.00
C3       1.08336    0.26675    0.21700   1.00
H1       0.97237    0.22763    0.30854   1.00
H1       1.03306    0.23880    0.31102   1.00
C5       0.97835    0.28207    0.18536   1.00
C5       1.01998    0.27865    0.18291   1.00
H1       0.90451    0.22776    0.31022   1.00
H1       1.10091    0.23886    0.30884   1.00
H1       0.90052    0.27736    0.19934   1.00
H1       1.09848    0.27446    0.19266   1.00
C6       0.95515    0.30056    0.15262   1.00
C6       1.04119    0.28668    0.14498   1.00
H2       0.93345    0.32019    0.16507   1.00
H2       1.06310    0.26411    0.14037   1.00
H2       0.97286    0.32059    0.13556   1.00
H2       1.02228    0.28248    0.11986   1.00
C6       0.93606    0.26993    0.12451   1.00
C6       1.05942    0.32859    0.14304   1.00
H2       0.92292    0.24645    0.14165   1.00
H2       1.07383    0.33525    0.17071   1.00
C6       0.90459    0.28504    0.09505   1.00
C6       1.08911    0.33715    0.10939   1.00
H2       0.95949    0.25609    0.10790   1.00
H2       1.03546    0.34950    0.14080   1.00
C6       0.86735    0.29954    0.11632   1.00
C6       1.12708    0.31294    0.11401   1.00
C6       0.92074    0.31824    0.06896   1.00
C6       1.07107    0.32899    0.06875   1.00
C6       0.89245    0.25072    0.06807   1.00
C6       1.10054    0.38097    0.11106   1.00
H2       0.85558    0.27696    0.13549   1.00
H2       1.14020    0.31757    0.14269   1.00
H2       0.87330    0.32525    0.13402   1.00
H2       1.12154    0.28183    0.11072   1.00
H2       0.84459    0.30746    0.09551   1.00
H2       1.14863    0.32108    0.09203   1.00
H2       0.89955    0.32664    0.04671   1.00
H2       1.09098    0.33768    0.04545   1.00
H2       0.92725    0.34415    0.08622   1.00
H2       1.06494    0.29800    0.06502   1.00
H2       0.94745    0.30906    0.05427   1.00
H2       1.04385    0.34507    0.06506   1.00
H2       0.88042    0.22659    0.08505   1.00
H2       1.11383    0.38821    0.13910   1.00
H2       0.87025    0.25979    0.04708   1.00
H2       1.12149    0.38835    0.08822   1.00
H2       0.91739    0.23970    0.05162   1.00
H2       1.07502    0.39963    0.10717   1.00
C4       0.74770    0.01975    0.25420   1.00
C4       0.74834    -0.02191   0.25561   1.00
C3       0.71527    0.04103    0.23920   1.00
C3       0.71516    -0.04504   0.24599   1.00
C3       0.78050    0.04146    0.26815   1.00
C3       0.78325    -0.04170   0.26707   1.00
C2       0.74555    0.10405    0.25310   1.00
C2       0.75019    -0.10622   0.25659   1.00
C3       0.71408    0.08189    0.23882   1.00
C3       0.71603    -0.08591   0.24625   1.00
C3       0.77803    0.08304    0.26745   1.00
C3       0.78300    -0.08336   0.26675   1.00
H1       0.69146    0.02763    0.22763   1.00
H1       0.68898    -0.03306   0.23880   1.00
C5       0.81464    0.02165    0.28207   1.00
C5       0.81709    -0.01998   0.27865   1.00
H1       0.68978    0.09549    0.22776   1.00
H1       0.69116    -0.10091   0.23886   1.00
H1       0.80066    0.09948    0.27736   1.00
H1       0.80734    -0.09848   0.27446   1.00
C6       0.84738    0.04485    0.30056   1.00
C6       0.85502    -0.04119   0.28668   1.00
H2       0.83493    0.06655    0.32019   1.00
H2       0.85963    -0.06310   0.26411   1.00
H2       0.86444    0.02714    0.32059   1.00
H2       0.88014    -0.02228   0.28248   1.00
C6       0.87549    0.06394    0.26993   1.00
C6       0.85696    -0.05942   0.32859   1.00
H2       0.85835    0.07708    0.24645   1.00
H2       0.82929    -0.07383   0.33525   1.00
C6       0.90495    0.09541    0.28504   1.00
C6       0.89061    -0.08911   0.33715   1.00
H2       0.89210    0.04051    0.25609   1.00
H2       0.85920    -0.03546   0.34950   1.00
C6       0.88368    0.13265    0.29954   1.00
C6       0.88599    -0.12708   0.31294   1.00
C6       0.93104    0.07926    0.31824   1.00
C6       0.93125    -0.07107   0.32899   1.00
C6       0.93193    0.10755    0.25072   1.00
C6       0.88894    -0.10054   0.38097   1.00
H2       0.86451    0.14442    0.27696   1.00
H2       0.85731    -0.14020   0.31757   1.00
H2       0.86598    0.12670    0.32525   1.00
H2       0.88928    -0.12154   0.28183   1.00
H2       0.90449    0.15541    0.30746   1.00
H2       0.90797    -0.14863   0.32108   1.00
H2       0.95329    0.10045    0.32664   1.00
H2       0.95455    -0.09098   0.33768   1.00
H2       0.91378    0.07275    0.34415   1.00
H2       0.93498    -0.06494   0.29800   1.00
H2       0.94573    0.05255    0.30906   1.00
H2       0.93494    -0.04385   0.34507   1.00
H2       0.91495    0.11958    0.22659   1.00
H2       0.86090    -0.11383   0.38821   1.00
H2       0.95292    0.12975    0.25979   1.00
H2       0.91178    -0.12149   0.38835   1.00
H2       0.94838    0.08261    0.23970   1.00
H2       0.89283    -0.07502   0.39963   1.00
C4       0.75420    0.24770    0.01975   1.00
C4       0.75561    0.24834    -0.02191   1.00
C3       0.73920    0.21527    0.04103   1.00
C3       0.74599    0.21516    -0.04504   1.00
C3       0.76815    0.28050    0.04146   1.00
C3       0.76707    0.28325    -0.04170   1.00
C2       0.75310    0.24555    0.10405   1.00
C2       0.75659    0.25019    -0.10622   1.00
C3       0.73882    0.21408    0.08189   1.00
C3       0.74625    0.21603    -0.08591   1.00
C3       0.76745    0.27803    0.08304   1.00
C3       0.76675    0.28300    -0.08336   1.00
H1       0.72763    0.19146    0.02763   1.00
H1       0.73880    0.18898    -0.03306   1.00
C5       0.78207    0.31464    0.02165   1.00
C5       0.77865    0.31709    -0.01998   1.00
H1       0.72776    0.18978    0.09549   1.00
H1       0.73886    0.19116    -0.10091   1.00
H1       0.77736    0.30066    0.09948   1.00
H1       0.77446    0.30734    -0.09848   1.00
C6       0.80056    0.34738    0.04485   1.00
C6       0.78668    0.35502    -0.04119   1.00
H2       0.82019    0.33493    0.06655   1.00
H2       0.76411    0.35963    -0.06310   1.00
H2       0.82059    0.36444    0.02714   1.00
H2       0.78248    0.38014    -0.02228   1.00
C6       0.76993    0.37549    0.06394   1.00
C6       0.82859    0.35696    -0.05942   1.00
H2       0.74645    0.35835    0.07708   1.00
H2       0.83525    0.32929    -0.07383   1.00
C6       0.78504    0.40495    0.09541   1.00
C6       0.83715    0.39061    -0.08911   1.00
H2       0.75609    0.39210    0.04051   1.00
H2       0.84950    0.35920    -0.03546   1.00
C6       0.79954    0.38368    0.13265   1.00
C6       0.81294    0.38599    -0.12708   1.00
C6       0.81824    0.43104    0.07926   1.00
C6       0.82899    0.43125    -0.07107   1.00
C6       0.75072    0.43193    0.10755   1.00
C6       0.88097    0.38894    -0.10054   1.00
H2       0.77696    0.36451    0.14442   1.00
H2       0.81757    0.35731    -0.14020   1.00
H2       0.82525    0.36598    0.12670   1.00
H2       0.78183    0.38928    -0.12154   1.00
H2       0.80746    0.40449    0.15541   1.00
H2       0.82108    0.40797    -0.14863   1.00
H2       0.82664    0.45329    0.10045   1.00
H2       0.83768    0.45455    -0.09098   1.00
H2       0.84415    0.41378    0.07275   1.00
H2       0.79800    0.43498    -0.06494   1.00
H2       0.80906    0.44573    0.05255   1.00
H2       0.84507    0.43494    -0.04385   1.00
H2       0.72659    0.41495    0.11958   1.00
H2       0.88821    0.36090    -0.11383   1.00
H2       0.75979    0.45292    0.12975   1.00
H2       0.88835    0.41178    -0.12149   1.00
H2       0.73970    0.44838    0.08261   1.00
H2       0.89963    0.39283    -0.07502   1.00
C4       0.91920    0.91730    1.14525   1.00
C4       0.92061    0.91666    1.18691   1.00
C3       0.90420    0.94973    1.12397   1.00
C3       0.91099    0.94984    1.21004   1.00
C3       0.93315    0.88450    1.12354   1.00
C3       0.93207    0.88175    1.20670   1.00
C2       0.91810    0.91945    1.06095   1.00
C2       0.92159    0.91481    1.27122   1.00
C3       0.90382    0.95092    1.08311   1.00
C3       0.91125    0.94897    1.25091   1.00
C3       0.93245    0.88697    1.08196   1.00
C3       0.93175    0.88200    1.24836   1.00
H1       0.89263    0.97354    1.13737   1.00
H1       0.90380    0.97602    1.19806   1.00
C5       0.94707    0.85036    1.14335   1.00
C5       0.94365    0.84791    1.18498   1.00
H1       0.89276    0.97522    1.06951   1.00
H1       0.90386    0.97384    1.26591   1.00
H1       0.94236    0.86434    1.06552   1.00
H1       0.93946    0.85766    1.26348   1.00
C6       0.96556    0.81762    1.12015   1.00
C6       0.95168    0.80998    1.20619   1.00
H2       0.98519    0.83007    1.09845   1.00
H2       0.92911    0.80537    1.22810   1.00
H2       0.98559    0.80056    1.13786   1.00
H2       0.94748    0.78486    1.18728   1.00
C6       0.93493    0.78951    1.10106   1.00
C6       0.99359    0.80804    1.22442   1.00
H2       0.91145    0.80665    1.08792   1.00
H2       1.00025    0.83571    1.23883   1.00
C6       0.95004    0.76005    1.06959   1.00
C6       1.00215    0.77439    1.25411   1.00
H2       0.92109    0.77290    1.12449   1.00
H2       1.01450    0.80580    1.20046   1.00
C6       0.96454    0.78132    1.03235   1.00
C6       0.97794    0.77901    1.29208   1.00
C6       0.98324    0.73396    1.08574   1.00
C6       0.99399    0.73375    1.23607   1.00
C6       0.91572    0.73307    1.05745   1.00
C6       1.04597    0.77606    1.26554   1.00
H2       0.94196    0.80049    1.02058   1.00
H2       0.98257    0.80769    1.30520   1.00
H2       0.99025    0.79902    1.03830   1.00
H2       0.94683    0.77572    1.28654   1.00
H2       0.97246    0.76051    1.00959   1.00
H2       0.98608    0.75703    1.31363   1.00
H2       0.99164    0.71171    1.06455   1.00
H2       1.00268    0.71045    1.25598   1.00
H2       1.00915    0.75122    1.09225   1.00
H2       0.96300    0.73002    1.22994   1.00
H2       0.97406    0.71927    1.11245   1.00
H2       1.01007    0.73006    1.20885   1.00
H2       0.89159    0.75005    1.04542   1.00
H2       1.05321    0.80410    1.27883   1.00
H2       0.92479    0.71208    1.03525   1.00
H2       1.05335    0.75322    1.28649   1.00
H2       0.90470    0.71662    1.08239   1.00
H2       1.06463    0.77217    1.24002   1.00
C4       0.91730    1.14525    0.91920   1.00
C4       0.91666    1.18691    0.92061   1.00
C3       0.94973    1.12397    0.90420   1.00
C3       0.94984    1.21004    0.91099   1.00
C3       0.88450    1.12354    0.93315   1.00
C3       0.88175    1.20670    0.93207   1.00
C2       0.91945    1.06095    0.91810   1.00
C2       0.91481    1.27122    0.92159   1.00
C3       0.95092    1.08311    0.90382   1.00
C3       0.94897    1.25091    0.91125   1.00
C3       0.88697    1.08196    0.93245   1.00
C3       0.88200    1.24836    0.93175   1.00
H1       0.97354    1.13737    0.89263   1.00
H1       0.97602    1.19806    0.90380   1.00
C5       0.85036    1.14335    0.94707   1.00
C5       0.84791    1.18498    0.94365   1.00
H1       0.97522    1.06951    0.89276   1.00
H1       0.97384    1.26591    0.90386   1.00
H1       0.86434    1.06552    0.94236   1.00
H1       0.85766    1.26348    0.93946   1.00
C6       0.81762    1.12015    0.96556   1.00
C6       0.80998    1.20619    0.95168   1.00
H2       0.83007    1.09845    0.98519   1.00
H2       0.80537    1.22810    0.92911   1.00
H2       0.80056    1.13786    0.98559   1.00
H2       0.78486    1.18728    0.94748   1.00
C6       0.78951    1.10106    0.93493   1.00
C6       0.80804    1.22442    0.99359   1.00
H2       0.80665    1.08792    0.91145   1.00
H2       0.83571    1.23883    1.00025   1.00
C6       0.76005    1.06959    0.95004   1.00
C6       0.77439    1.25411    1.00215   1.00
H2       0.77290    1.12449    0.92109   1.00
H2       0.80580    1.20046    1.01450   1.00
C6       0.78132    1.03235    0.96454   1.00
C6       0.77901    1.29208    0.97794   1.00
C6       0.73396    1.08574    0.98324   1.00
C6       0.73375    1.23607    0.99399   1.00
C6       0.73307    1.05745    0.91572   1.00
C6       0.77606    1.26554    1.04597   1.00
H2       0.80049    1.02058    0.94196   1.00
H2       0.80769    1.30520    0.98257   1.00
H2       0.79902    1.03830    0.99025   1.00
H2       0.77572    1.28654    0.94683   1.00
H2       0.76051    1.00959    0.97246   1.00
H2       0.75703    1.31363    0.98608   1.00
H2       0.71171    1.06455    0.99164   1.00
H2       0.71045    1.25598    1.00268   1.00
H2       0.75122    1.09225    1.00915   1.00
H2       0.73002    1.22994    0.96300   1.00
H2       0.71927    1.11245    0.97406   1.00
H2       0.73006    1.20885    1.01007   1.00
H2       0.75005    1.04542    0.89159   1.00
H2       0.80410    1.27883    1.05321   1.00
H2       0.71208    1.03525    0.92479   1.00
H2       0.75322    1.28649    1.05335   1.00
H2       0.71662    1.08239    0.90470   1.00
H2       0.77217    1.24002    1.06463   1.00
C4       0.68475    0.91920    0.91270   1.00
C4       0.64309    0.92061    0.91334   1.00
C3       0.70603    0.90420    0.88027   1.00
C3       0.61996    0.91099    0.88016   1.00
C3       0.70646    0.93315    0.94550   1.00
C3       0.62330    0.93207    0.94825   1.00
C2       0.76905    0.91810    0.91055   1.00
C2       0.55878    0.92159    0.91519   1.00
C3       0.74689    0.90382    0.87908   1.00
C3       0.57909    0.91125    0.88103   1.00
C3       0.74804    0.93245    0.94303   1.00
C3       0.58164    0.93175    0.94800   1.00
H1       0.69263    0.89263    0.85646   1.00
H1       0.63194    0.90380    0.85398   1.00
C5       0.68665    0.94707    0.97964   1.00
C5       0.64502    0.94365    0.98209   1.00
H1       0.76049    0.89276    0.85478   1.00
H1       0.56409    0.90386    0.85616   1.00
H1       0.76448    0.94236    0.96566   1.00
H1       0.56652    0.93946    0.97234   1.00
C6       0.70985    0.96556    1.01238   1.00
C6       0.62381    0.95168    1.02002   1.00
H2       0.73155    0.98519    0.99993   1.00
H2       0.60190    0.92911    1.02463   1.00
H2       0.69214    0.98559    1.02944   1.00
H2       0.64272    0.94748    1.04514   1.00
C6       0.72894    0.93493    1.04049   1.00
C6       0.60558    0.99359    1.02196   1.00
H2       0.74208    0.91145    1.02335   1.00
H2       0.59117    1.00025    0.99429   1.00
C6       0.76041    0.95004    1.06995   1.00
C6       0.57589    1.00215    1.05561   1.00
H2       0.70551    0.92109    1.05710   1.00
H2       0.62954    1.01450    1.02420   1.00
C6       0.79765    0.96454    1.04868   1.00
C6       0.53792    0.97794    1.05099   1.00
C6       0.74426    0.98324    1.09604   1.00
C6       0.59393    0.99399    1.09625   1.00
C6       0.77255    0.91572    1.09693   1.00
C6       0.56446    1.04597    1.05394   1.00
H2       0.80942    0.94196    1.02951   1.00
H2       0.52480    0.98257    1.02231   1.00
H2       0.79170    0.99025    1.03098   1.00
H2       0.54346    0.94683    1.05428   1.00
H2       0.82041    0.97246    1.06949   1.00
H2       0.51637    0.98608    1.07297   1.00
H2       0.76545    0.99164    1.11829   1.00
H2       0.57402    1.00268    1.11955   1.00
H2       0.73775    1.00915    1.07878   1.00
H2       0.60006    0.96300    1.09998   1.00
H2       0.71755    0.97406    1.11073   1.00
H2       0.62115    1.01007    1.09994   1.00
H2       0.78458    0.89159    1.07995   1.00
H2       0.55117    1.05321    1.02590   1.00
H2       0.79475    0.92479    1.11792   1.00
H2       0.54351    1.05335    1.07678   1.00
H2       0.74761    0.90470    1.11338   1.00
H2       0.58998    1.06463    1.05783   1.00
C4       1.14525    0.91920    0.91730   1.00
C4       1.18691    0.92061    0.91666   1.00
C3       1.12397    0.90420    0.94973   1.00
C3       1.21004    0.91099    0.94984   1.00
C3       1.12354    0.93315    0.88450   1.00
C3       1.20670    0.93207    0.88175   1.00
C2       1.06095    0.91810    0.91945   1.00
C2       1.27122    0.92159    0.91481   1.00
C3       1.08311    0.90382    0.95092   1.00
C3       1.25091    0.91125    0.94897   1.00
C3       1.08196    0.93245    0.88697   1.00
C3       1.24836    0.93175    0.88200   1.00
H1       1.13737    0.89263    0.97354   1.00
H1       1.19806    0.90380    0.97602   1.00
C5       1.14335    0.94707    0.85036   1.00
C5       1.18498    0.94365    0.84791   1.00
H1       1.06951    0.89276    0.97522   1.00
H1       1.26591    0.90386    0.97384   1.00
H1       1.06552    0.94236    0.86434   1.00
H1       1.26348    0.93946    0.85766   1.00
C6       1.12015    0.96556    0.81762   1.00
C6       1.20619    0.95168    0.80998   1.00
H2       1.09845    0.98519    0.83007   1.00
H2       1.22810    0.92911    0.80537   1.00
H2       1.13786    0.98559    0.80056   1.00
H2       1.18728    0.94748    0.78486   1.00
C6       1.10106    0.93493    0.78951   1.00
C6       1.22442    0.99359    0.80804   1.00
H2       1.08792    0.91145    0.80665   1.00
H2       1.23883    1.00025    0.83571   1.00
C6       1.06959    0.95004    0.76005   1.00
C6       1.25411    1.00215    0.77439   1.00
H2       1.12449    0.92109    0.77290   1.00
H2       1.20046    1.01450    0.80580   1.00
C6       1.03235    0.96454    0.78132   1.00
C6       1.29208    0.97794    0.77901   1.00
C6       1.08574    0.98324    0.73396   1.00
C6       1.23607    0.99399    0.73375   1.00
C6       1.05745    0.91572    0.73307   1.00
C6       1.26554    1.04597    0.77606   1.00
H2       1.02058    0.94196    0.80049   1.00
H2       1.30520    0.98257    0.80769   1.00
H2       1.03830    0.99025    0.79902   1.00
H2       1.28654    0.94683    0.77572   1.00
H2       1.00959    0.97246    0.76051   1.00
H2       1.31363    0.98608    0.75703   1.00
H2       1.06455    0.99164    0.71171   1.00
H2       1.25598    1.00268    0.71045   1.00
H2       1.09225    1.00915    0.75122   1.00
H2       1.22994    0.96300    0.73002   1.00
H2       1.11245    0.97406    0.71927   1.00
H2       1.20885    1.01007    0.73006   1.00
H2       1.04542    0.89159    0.75005   1.00
H2       1.27883    1.05321    0.80410   1.00
H2       1.03525    0.92479    0.71208   1.00
H2       1.28649    1.05335    0.75322   1.00
H2       1.08239    0.90470    0.71662   1.00
H2       1.24002    1.06463    0.77217   1.00
C4       0.91270    0.68475    0.91920   1.00
C4       0.91334    0.64309    0.92061   1.00
C3       0.88027    0.70603    0.90420   1.00
C3       0.88016    0.61996    0.91099   1.00
C3       0.94550    0.70646    0.93315   1.00
C3       0.94825    0.62330    0.93207   1.00
C2       0.91055    0.76905    0.91810   1.00
C2       0.91519    0.55878    0.92159   1.00
C3       0.87908    0.74689    0.90382   1.00
C3       0.88103    0.57909    0.91125   1.00
C3       0.94303    0.74804    0.93245   1.00
C3       0.94800    0.58164    0.93175   1.00
H1       0.85646    0.69263    0.89263   1.00
H1       0.85398    0.63194    0.90380   1.00
C5       0.97964    0.68665    0.94707   1.00
C5       0.98209    0.64502    0.94365   1.00
H1       0.85478    0.76049    0.89276   1.00
H1       0.85616    0.56409    0.90386   1.00
H1       0.96566    0.76448    0.94236   1.00
H1       0.97234    0.56652    0.93946   1.00
C6       1.01238    0.70985    0.96556   1.00
C6       1.02002    0.62381    0.95168   1.00
H2       0.99993    0.73155    0.98519   1.00
H2       1.02463    0.60190    0.92911   1.00
H2       1.02944    0.69214    0.98559   1.00
H2       1.04514    0.64272    0.94748   1.00
C6       1.04049    0.72894    0.93493   1.00
C6       1.02196    0.60558    0.99359   1.00
H2       1.02335    0.74208    0.91145   1.00
H2       0.99429    0.59117    1.00025   1.00
C6       1.06995    0.76041    0.95004   1.00
C6       1.05561    0.57589    1.00215   1.00
H2       1.05710    0.70551    0.92109   1.00
H2       1.02420    0.62954    1.01450   1.00
C6       1.04868    0.79765    0.96454   1.00
C6       1.05099    0.53792    0.97794   1.00
C6       1.09604    0.74426    0.98324   1.00
C6       1.09625    0.59393    0.99399   1.00
C6       1.09693    0.77255    0.91572   1.00
C6       1.05394    0.56446    1.04597   1.00
H2       1.02951    0.80942    0.94196   1.00
H2       1.02231    0.52480    0.98257   1.00
H2       1.03098    0.79170    0.99025   1.00
H2       1.05428    0.54346    0.94683   1.00
H2       1.06949    0.82041    0.97246   1.00
H2       1.07297    0.51637    0.98608   1.00
H2       1.11829    0.76545    0.99164   1.00
H2       1.11955    0.57402    1.00268   1.00
H2       1.07878    0.73775    1.00915   1.00
H2       1.09998    0.60006    0.96300   1.00
H2       1.11073    0.71755    0.97406   1.00
H2       1.09994    0.62115    1.01007   1.00
H2       1.07995    0.78458    0.89159   1.00
H2       1.02590    0.55117    1.05321   1.00
H2       1.11792    0.79475    0.92479   1.00
H2       1.07678    0.54351    1.05335   1.00
H2       1.11338    0.74761    0.90470   1.00
H2       1.05783    0.58998    1.06463   1.00
C4       0.91920    0.91270    0.68475   1.00
C4       0.92061    0.91334    0.64309   1.00
C3       0.90420    0.88027    0.70603   1.00
C3       0.91099    0.88016    0.61996   1.00
C3       0.93315    0.94550    0.70646   1.00
C3       0.93207    0.94825    0.62330   1.00
C2       0.91810    0.91055    0.76905   1.00
C2       0.92159    0.91519    0.55878   1.00
C3       0.90382    0.87908    0.74689   1.00
C3       0.91125    0.88103    0.57909   1.00
C3       0.93245    0.94303    0.74804   1.00
C3       0.93175    0.94800    0.58164   1.00
H1       0.89263    0.85646    0.69263   1.00
H1       0.90380    0.85398    0.63194   1.00
C5       0.94707    0.97964    0.68665   1.00
C5       0.94365    0.98209    0.64502   1.00
H1       0.89276    0.85478    0.76049   1.00
H1       0.90386    0.85616    0.56409   1.00
H1       0.94236    0.96566    0.76448   1.00
H1       0.93946    0.97234    0.56652   1.00
C6       0.96556    1.01238    0.70985   1.00
C6       0.95168    1.02002    0.62381   1.00
H2       0.98519    0.99993    0.73155   1.00
H2       0.92911    1.02463    0.60190   1.00
H2       0.98559    1.02944    0.69214   1.00
H2       0.94748    1.04514    0.64272   1.00
C6       0.93493    1.04049    0.72894   1.00
C6       0.99359    1.02196    0.60558   1.00
H2       0.91145    1.02335    0.74208   1.00
H2       1.00025    0.99429    0.59117   1.00
C6       0.95004    1.06995    0.76041   1.00
C6       1.00215    1.05561    0.57589   1.00
H2       0.92109    1.05710    0.70551   1.00
H2       1.01450    1.02420    0.62954   1.00
C6       0.96454    1.04868    0.79765   1.00
C6       0.97794    1.05099    0.53792   1.00
C6       0.98324    1.09604    0.74426   1.00
C6       0.99399    1.09625    0.59393   1.00
C6       0.91572    1.09693    0.77255   1.00
C6       1.04597    1.05394    0.56446   1.00
H2       0.94196    1.02951    0.80942   1.00
H2       0.98257    1.02231    0.52480   1.00
H2       0.99025    1.03098    0.79170   1.00
H2       0.94683    1.05428    0.54346   1.00
H2       0.97246    1.06949    0.82041   1.00
H2       0.98608    1.07297    0.51637   1.00
H2       0.99164    1.11829    0.76545   1.00
H2       1.00268    1.11955    0.57402   1.00
H2       1.00915    1.07878    0.73775   1.00
H2       0.96300    1.09998    0.60006   1.00
H2       0.97406    1.11073    0.71755   1.00
H2       1.01007    1.09994    0.62115   1.00
H2       0.89159    1.07995    0.78458   1.00
H2       1.05321    1.02590    0.55117   1.00
H2       0.92479    1.11792    0.79475   1.00
H2       1.05335    1.07678    0.54351   1.00
H2       0.90470    1.11338    0.74761   1.00
H2       1.06463    1.05783    0.58998   1.00
C4       0.41920    0.41730    1.14525   1.00
C4       0.42061    0.41666    1.18691   1.00
C3       0.40420    0.44973    1.12397   1.00
C3       0.41099    0.44984    1.21004   1.00
C3       0.43315    0.38450    1.12354   1.00
C3       0.43207    0.38175    1.20670   1.00
C2       0.41810    0.41945    1.06095   1.00
C2       0.42159    0.41481    1.27122   1.00
C3       0.40382    0.45092    1.08311   1.00
C3       0.41125    0.44897    1.25091   1.00
C3       0.43245    0.38697    1.08196   1.00
C3       0.43175    0.38200    1.24836   1.00
H1       0.39263    0.47354    1.13737   1.00
H1       0.40380    0.47602    1.19806   1.00
C5       0.44707    0.35036    1.14335   1.00
C5       0.44365    0.34791    1.18498   1.00
H1       0.39276    0.47522    1.06951   1.00
H1       0.40386    0.47384    1.26591   1.00
H1       0.44236    0.36434    1.06552   1.00
H1       0.43946    0.35766    1.26348   1.00
C6       0.46556    0.31762    1.12015   1.00
C6       0.45168    0.30998    1.20619   1.00
H2       0.48519    0.33007    1.09845   1.00
H2       0.42911    0.30537    1.22810   1.00
H2       0.48559    0.30056    1.13786   1.00
H2       0.44748    0.28486    1.18728   1.00
C6       0.43493    0.28951    1.10106   1.00
C6       0.49359    0.30804    1.22442   1.00
H2       0.41145    0.30665    1.08792   1.00
H2       0.50025    0.33571    1.23883   1.00
C6       0.45004    0.26005    1.06959   1.00
C6       0.50215    0.27439    1.25411   1.00
H2       0.42109    0.27290    1.12449   1.00
H2       0.51450    0.30580    1.20046   1.00
C6       0.46454    0.28132    1.03235   1.00
C6       0.47794    0.27901    1.29208   1.00
C6       0.48324    0.23396    1.08574   1.00
C6       0.49399    0.23375    1.23607   1.00
C6       0.41572    0.23307    1.05745   1.00
C6       0.54597    0.27606    1.26554   1.00
H2       0.44196    0.30049    1.02058   1.00
H2       0.48257    0.30769    1.30520   1.00
H2       0.49025    0.29902    1.03830   1.00
H2       0.44683    0.27572    1.28654   1.00
H2       0.47246    0.26051    1.00959   1.00
H2       0.48608    0.25703    1.31363   1.00
H2       0.49164    0.21171    1.06455   1.00
H2       0.50268    0.21045    1.25598   1.00
H2       0.50915    0.25122    1.09225   1.00
H2       0.46300    0.23002    1.22994   1.00
H2       0.47406    0.21927    1.11245   1.00
H2       0.51007    0.23006    1.20885   1.00
H2       0.39159    0.25005    1.04542   1.00
H2       0.55321    0.30410    1.27883   1.00
H2       0.42479    0.21208    1.03525   1.00
H2       0.55335    0.25322    1.28649   1.00
H2       0.40470    0.21662    1.08239   1.00
H2       0.56463    0.27217    1.24002   1.00
C4       0.41730    0.64525    0.91920   1.00
C4       0.41666    0.68691    0.92061   1.00
C3       0.44973    0.62397    0.90420   1.00
C3       0.44984    0.71004    0.91099   1.00
C3       0.38450    0.62354    0.93315   1.00
C3       0.38175    0.70670    0.93207   1.00
C2       0.41945    0.56095    0.91810   1.00
C2       0.41481    0.77122    0.92159   1.00
C3       0.45092    0.58311    0.90382   1.00
C3       0.44897    0.75091    0.91125   1.00
C3       0.38697    0.58196    0.93245   1.00
C3       0.38200    0.74836    0.93175   1.00
H1       0.47354    0.63737    0.89263   1.00
H1       0.47602    0.69806    0.90380   1.00
C5       0.35036    0.64335    0.94707   1.00
C5       0.34791    0.68498    0.94365   1.00
H1       0.47522    0.56951    0.89276   1.00
H1       0.47384    0.76591    0.90386   1.00
H1       0.36434    0.56552    0.94236   1.00
H1       0.35766    0.76348    0.93946   1.00
C6       0.31762    0.62015    0.96556   1.00
C6       0.30998    0.70619    0.95168   1.00
H2       0.33007    0.59845    0.98519   1.00
H2       0.30537    0.72810    0.92911   1.00
H2       0.30056    0.63786    0.98559   1.00
H2       0.28486    0.68728    0.94748   1.00
C6       0.28951    0.60106    0.93493   1.00
C6       0.30804    0.72442    0.99359   1.00
H2       0.30665    0.58792    0.91145   1.00
H2       0.33571    0.73883    1.00025   1.00
C6       0.26005    0.56959    0.95004   1.00
C6       0.27439    0.75411    1.00215   1.00
H2       0.27290    0.62449    0.92109   1.00
H2       0.30580    0.70046    1.01450   1.00
C6       0.28132    0.53235    0.96454   1.00
C6       0.27901    0.79208    0.97794   1.00
C6       0.23396    0.58574    0.98324   1.00
C6       0.23375    0.73607    0.99399   1.00
C6       0.23307    0.55745    0.91572   1.00
C6       0.27606    0.76554    1.04597   1.00
H2       0.30049    0.52058    0.94196   1.00
H2       0.30769    0.80520    0.98257   1.00
H2       0.29902    0.53830    0.99025   1.00
H2       0.27572    0.78654    0.94683   1.00
H2       0.26051    0.50959    0.97246   1.00
H2       0.25703    0.81363    0.98608   1.00
H2       0.21171    0.56455    0.99164   1.00
H2       0.21045    0.75598    1.00268   1.00
H2       0.25122    0.59225    1.00915   1.00
H2       0.23002    0.72994    0.96300   1.00
H2       0.21927    0.61245    0.97406   1.00
H2       0.23006    0.70885    1.01007   1.00
H2       0.25005    0.54542    0.89159   1.00
H2       0.30410    0.77883    1.05321   1.00
H2       0.21208    0.53525    0.92479   1.00
H2       0.25322    0.78649    1.05335   1.00
H2       0.21662    0.58239    0.90470   1.00
H2       0.27217    0.74002    1.06463   1.00
C4       0.18475    0.41920    0.91270   1.00
C4       0.14309    0.42061    0.91334   1.00
C3       0.20603    0.40420    0.88027   1.00
C3       0.11996    0.41099    0.88016   1.00
C3       0.20646    0.43315    0.94550   1.00
C3       0.12330    0.43207    0.94825   1.00
C2       0.26905    0.41810    0.91055   1.00
C2       0.05878    0.42159    0.91519   1.00
C3       0.24689    0.40382    0.87908   1.00
C3       0.07909    0.41125    0.88103   1.00
C3       0.24804    0.43245    0.94303   1.00
C3       0.08164    0.43175    0.94800   1.00
H1       0.19263    0.39263    0.85646   1.00
H1       0.13194    0.40380    0.85398   1.00
C5       0.18665    0.44707    0.97964   1.00
C5       0.14502    0.44365    0.98209   1.00
H1       0.26049    0.39276    0.85478   1.00
H1       0.06409    0.40386    0.85616   1.00
H1       0.26448    0.44236    0.96566   1.00
H1       0.06652    0.43946    0.97234   1.00
C6       0.20985    0.46556    1.01238   1.00
C6       0.12381    0.45168    1.02002   1.00
H2       0.23155    0.48519    0.99993   1.00
H2       0.10190    0.42911    1.02463   1.00
H2       0.19214    0.48559    1.02944   1.00
H2       0.14272    0.44748    1.04514   1.00
C6       0.22894    0.43493    1.04049   1.00
C6       0.10558    0.49359    1.02196   1.00
H2       0.24208    0.41145    1.02335   1.00
H2       0.09117    0.50025    0.99429   1.00
C6       0.26041    0.45004    1.06995   1.00
C6       0.07589    0.50215    1.05561   1.00
H2       0.20551    0.42109    1.05710   1.00
H2       0.12954    0.51450    1.02420   1.00
C6       0.29765    0.46454    1.04868   1.00
C6       0.03792    0.47794    1.05099   1.00
C6       0.24426    0.48324    1.09604   1.00
C6       0.09393    0.49399    1.09625   1.00
C6       0.27255    0.41572    1.09693   1.00
C6       0.06446    0.54597    1.05394   1.00
H2       0.30942    0.44196    1.02951   1.00
H2       0.02480    0.48257    1.02231   1.00
H2       0.29170    0.49025    1.03098   1.00
H2       0.04346    0.44683    1.05428   1.00
H2       0.32041    0.47246    1.06949   1.00
H2       0.01637    0.48608    1.07297   1.00
H2       0.26545    0.49164    1.11829   1.00
H2       0.07402    0.50268    1.11955   1.00
H2       0.23775    0.50915    1.07878   1.00
H2       0.10006    0.46300    1.09998   1.00
H2       0.21755    0.47406    1.11073   1.00
H2       0.12115    0.51007    1.09994   1.00
H2       0.28458    0.39159    1.07995   1.00
H2       0.05117    0.55321    1.02590   1.00
H2       0.29475    0.42479    1.11792   1.00
H2       0.04351    0.55335    1.07678   1.00
H2       0.24761    0.40470    1.11338   1.00
H2       0.08998    0.56463    1.05783   1.00
C4       0.64525    0.41920    0.91730   1.00
C4       0.68691    0.42061    0.91666   1.00
C3       0.62397    0.40420    0.94973   1.00
C3       0.71004    0.41099    0.94984   1.00
C3       0.62354    0.43315    0.88450   1.00
C3       0.70670    0.43207    0.88175   1.00
C2       0.56095    0.41810    0.91945   1.00
C2       0.77122    0.42159    0.91481   1.00
C3       0.58311    0.40382    0.95092   1.00
C3       0.75091    0.41125    0.94897   1.00
C3       0.58196    0.43245    0.88697   1.00
C3       0.74836    0.43175    0.88200   1.00
H1       0.63737    0.39263    0.97354   1.00
H1       0.69806    0.40380    0.97602   1.00
C5       0.64335    0.44707    0.85036   1.00
C5       0.68498    0.44365    0.84791   1.00
H1       0.56951    0.39276    0.97522   1.00
H1       0.76591    0.40386    0.97384   1.00
H1       0.56552    0.44236    0.86434   1.00
H1       0.76348    0.43946    0.85766   1.00
C6       0.62015    0.46556    0.81762   1.00
C6       0.70619    0.45168    0.80998   1.00
H2       0.59845    0.48519    0.83007   1.00
H2       0.72810    0.42911    0.80537   1.00
H2       0.63786    0.48559    0.80056   1.00
H2       0.68728    0.44748    0.78486   1.00
C6       0.60106    0.43493    0.78951   1.00
C6       0.72442    0.49359    0.80804   1.00
H2       0.58792    0.41145    0.80665   1.00
H2       0.73883    0.50025    0.83571   1.00
C6       0.56959    0.45004    0.76005   1.00
C6       0.75411    0.50215    0.77439   1.00
H2       0.62449    0.42109    0.77290   1.00
H2       0.70046    0.51450    0.80580   1.00
C6       0.53235    0.46454    0.78132   1.00
C6       0.79208    0.47794    0.77901   1.00
C6       0.58574    0.48324    0.73396   1.00
C6       0.73607    0.49399    0.73375   1.00
C6       0.55745    0.41572    0.73307   1.00
C6       0.76554    0.54597    0.77606   1.00
H2       0.52058    0.44196    0.80049   1.00
H2       0.80520    0.48257    0.80769   1.00
H2       0.53830    0.49025    0.79902   1.00
H2       0.78654    0.44683    0.77572   1.00
H2       0.50959    0.47246    0.76051   1.00
H2       0.81363    0.48608    0.75703   1.00
H2       0.56455    0.49164    0.71171   1.00
H2       0.75598    0.50268    0.71045   1.00
H2       0.59225    0.50915    0.75122   1.00
H2       0.72994    0.46300    0.73002   1.00
H2       0.61245    0.47406    0.71927   1.00
H2       0.70885    0.51007    0.73006   1.00
H2       0.54542    0.39159    0.75005   1.00
H2       0.77883    0.55321    0.80410   1.00
H2       0.53525    0.42479    0.71208   1.00
H2       0.78649    0.55335    0.75322   1.00
H2       0.58239    0.40470    0.71662   1.00
H2       0.74002    0.56463    0.77217   1.00
C4       0.41270    0.18475    0.91920   1.00
C4       0.41334    0.14309    0.92061   1.00
C3       0.38027    0.20603    0.90420   1.00
C3       0.38016    0.11996    0.91099   1.00
C3       0.44550    0.20646    0.93315   1.00
C3       0.44825    0.12330    0.93207   1.00
C2       0.41055    0.26905    0.91810   1.00
C2       0.41519    0.05878    0.92159   1.00
C3       0.37908    0.24689    0.90382   1.00
C3       0.38103    0.07909    0.91125   1.00
C3       0.44303    0.24804    0.93245   1.00
C3       0.44800    0.08164    0.93175   1.00
H1       0.35646    0.19263    0.89263   1.00
H1       0.35398    0.13194    0.90380   1.00
C5       0.47964    0.18665    0.94707   1.00
C5       0.48209    0.14502    0.94365   1.00
H1       0.35478    0.26049    0.89276   1.00
H1       0.35616    0.06409    0.90386   1.00
H1       0.46566    0.26448    0.94236   1.00
H1       0.47234    0.06652    0.93946   1.00
C6       0.51238    0.20985    0.96556   1.00
C6       0.52002    0.12381    0.95168   1.00
H2       0.49993    0.23155    0.98519   1.00
H2       0.52463    0.10190    0.92911   1.00
H2       0.52944    0.19214    0.98559   1.00
H2       0.54514    0.14272    0.94748   1.00
C6       0.54049    0.22894    0.93493   1.00
C6       0.52196    0.10558    0.99359   1.00
H2       0.52335    0.24208    0.91145   1.00
H2       0.49429    0.09117    1.00025   1.00
C6       0.56995    0.26041    0.95004   1.00
C6       0.55561    0.07589    1.00215   1.00
H2       0.55710    0.20551    0.92109   1.00
H2       0.52420    0.12954    1.01450   1.00
C6       0.54868    0.29765    0.96454   1.00
C6       0.55099    0.03792    0.97794   1.00
C6       0.59604    0.24426    0.98324   1.00
C6       0.59625    0.09393    0.99399   1.00
C6       0.59693    0.27255    0.91572   1.00
C6       0.55394    0.06446    1.04597   1.00
H2       0.52951    0.30942    0.94196   1.00
H2       0.52231    0.02480    0.98257   1.00
H2       0.53098    0.29170    0.99025   1.00
H2       0.55428    0.04346    0.94683   1.00
H2       0.56949    0.32041    0.97246   1.00
H2       0.57297    0.01637    0.98608   1.00
H2       0.61829    0.26545    0.99164   1.00
H2       0.61955    0.07402    1.00268   1.00
H2       0.57878    0.23775    1.00915   1.00
H2       0.59998    0.10006    0.96300   1.00
H2       0.61073    0.21755    0.97406   1.00
H2       0.59994    0.12115    1.01007   1.00
H2       0.57995    0.28458    0.89159   1.00
H2       0.52590    0.05117    1.05321   1.00
H2       0.61792    0.29475    0.92479   1.00
H2       0.57678    0.04351    1.05335   1.00
H2       0.61338    0.24761    0.90470   1.00
H2       0.55783    0.08998    1.06463   1.00
C4       0.41920    0.41270    0.68475   1.00
C4       0.42061    0.41334    0.64309   1.00
C3       0.40420    0.38027    0.70603   1.00
C3       0.41099    0.38016    0.61996   1.00
C3       0.43315    0.44550    0.70646   1.00
C3       0.43207    0.44825    0.62330   1.00
C2       0.41810    0.41055    0.76905   1.00
C2       0.42159    0.41519    0.55878   1.00
C3       0.40382    0.37908    0.74689   1.00
C3       0.41125    0.38103    0.57909   1.00
C3       0.43245    0.44303    0.74804   1.00
C3       0.43175    0.44800    0.58164   1.00
H1       0.39263    0.35646    0.69263   1.00
H1       0.40380    0.35398    0.63194   1.00
C5       0.44707    0.47964    0.68665   1.00
C5       0.44365    0.48209    0.64502   1.00
H1       0.39276    0.35478    0.76049   1.00
H1       0.40386    0.35616    0.56409   1.00
H1       0.44236    0.46566    0.76448   1.00
H1       0.43946    0.47234    0.56652   1.00
C6       0.46556    0.51238    0.70985   1.00
C6       0.45168    0.52002    0.62381   1.00
H2       0.48519    0.49993    0.73155   1.00
H2       0.42911    0.52463    0.60190   1.00
H2       0.48559    0.52944    0.69214   1.00
H2       0.44748    0.54514    0.64272   1.00
C6       0.43493    0.54049    0.72894   1.00
C6       0.49359    0.52196    0.60558   1.00
H2       0.41145    0.52335    0.74208   1.00
H2       0.50025    0.49429    0.59117   1.00
C6       0.45004    0.56995    0.76041   1.00
C6       0.50215    0.55561    0.57589   1.00
H2       0.42109    0.55710    0.70551   1.00
H2       0.51450    0.52420    0.62954   1.00
C6       0.46454    0.54868    0.79765   1.00
C6       0.47794    0.55099    0.53792   1.00
C6       0.48324    0.59604    0.74426   1.00
C6       0.49399    0.59625    0.59393   1.00
C6       0.41572    0.59693    0.77255   1.00
C6       0.54597    0.55394    0.56446   1.00
H2       0.44196    0.52951    0.80942   1.00
H2       0.48257    0.52231    0.52480   1.00
H2       0.49025    0.53098    0.79170   1.00
H2       0.44683    0.55428    0.54346   1.00
H2       0.47246    0.56949    0.82041   1.00
H2       0.48608    0.57297    0.51637   1.00
H2       0.49164    0.61829    0.76545   1.00
H2       0.50268    0.61955    0.57402   1.00
H2       0.50915    0.57878    0.73775   1.00
H2       0.46300    0.59998    0.60006   1.00
H2       0.47406    0.61073    0.71755   1.00
H2       0.51007    0.59994    0.62115   1.00
H2       0.39159    0.57995    0.78458   1.00
H2       0.55321    0.52590    0.55117   1.00
H2       0.42479    0.61792    0.79475   1.00
H2       0.55335    0.57678    0.54351   1.00
H2       0.40470    0.61338    0.74761   1.00
H2       0.56463    0.55783    0.58998   1.00
C4       0.41920    0.91730    0.64525   1.00
C4       0.42061    0.91666    0.68691   1.00
C3       0.40420    0.94973    0.62397   1.00
C3       0.41099    0.94984    0.71004   1.00
C3       0.43315    0.88450    0.62354   1.00
C3       0.43207    0.88175    0.70670   1.00
C2       0.41810    0.91945    0.56095   1.00
C2       0.42159    0.91481    0.77122   1.00
C3       0.40382    0.95092    0.58311   1.00
C3       0.41125    0.94897    0.75091   1.00
C3       0.43245    0.88697    0.58196   1.00
C3       0.43175    0.88200    0.74836   1.00
H1       0.39263    0.97354    0.63737   1.00
H1       0.40380    0.97602    0.69806   1.00
C5       0.44707    0.85036    0.64335   1.00
C5       0.44365    0.84791    0.68498   1.00
H1       0.39276    0.97522    0.56951   1.00
H1       0.40386    0.97384    0.76591   1.00
H1       0.44236    0.86434    0.56552   1.00
H1       0.43946    0.85766    0.76348   1.00
C6       0.46556    0.81762    0.62015   1.00
C6       0.45168    0.80998    0.70619   1.00
H2       0.48519    0.83007    0.59845   1.00
H2       0.42911    0.80537    0.72810   1.00
H2       0.48559    0.80056    0.63786   1.00
H2       0.44748    0.78486    0.68728   1.00
C6       0.43493    0.78951    0.60106   1.00
C6       0.49359    0.80804    0.72442   1.00
H2       0.41145    0.80665    0.58792   1.00
H2       0.50025    0.83571    0.73883   1.00
C6       0.45004    0.76005    0.56959   1.00
C6       0.50215    0.77439    0.75411   1.00
H2       0.42109    0.77290    0.62449   1.00
H2       0.51450    0.80580    0.70046   1.00
C6       0.46454    0.78132    0.53235   1.00
C6       0.47794    0.77901    0.79208   1.00
C6       0.48324    0.73396    0.58574   1.00
C6       0.49399    0.73375    0.73607   1.00
C6       0.41572    0.73307    0.55745   1.00
C6       0.54597    0.77606    0.76554   1.00
H2       0.44196    0.80049    0.52058   1.00
H2       0.48257    0.80769    0.80520   1.00
H2       0.49025    0.79902    0.53830   1.00
H2       0.44683    0.77572    0.78654   1.00
H2       0.47246    0.76051    0.50959   1.00
H2       0.48608    0.75703    0.81363   1.00
H2       0.49164    0.71171    0.56455   1.00
H2       0.50268    0.71045    0.75598   1.00
H2       0.50915    0.75122    0.59225   1.00
H2       0.46300    0.73002    0.72994   1.00
H2       0.47406    0.71927    0.61245   1.00
H2       0.51007    0.73006    0.70885   1.00
H2       0.39159    0.75005    0.54542   1.00
H2       0.55321    0.80410    0.77883   1.00
H2       0.42479    0.71208    0.53525   1.00
H2       0.55335    0.75322    0.78649   1.00
H2       0.40470    0.71662    0.58239   1.00
H2       0.56463    0.77217    0.74002   1.00
C4       0.41730    1.14525    0.41920   1.00
C4       0.41666    1.18691    0.42061   1.00
C3       0.44973    1.12397    0.40420   1.00
C3       0.44984    1.21004    0.41099   1.00
C3       0.38450    1.12354    0.43315   1.00
C3       0.38175    1.20670    0.43207   1.00
C2       0.41945    1.06095    0.41810   1.00
C2       0.41481    1.27122    0.42159   1.00
C3       0.45092    1.08311    0.40382   1.00
C3       0.44897    1.25091    0.41125   1.00
C3       0.38697    1.08196    0.43245   1.00
C3       0.38200    1.24836    0.43175   1.00
H1       0.47354    1.13737    0.39263   1.00
H1       0.47602    1.19806    0.40380   1.00
C5       0.35036    1.14335    0.44707   1.00
C5       0.34791    1.18498    0.44365   1.00
H1       0.47522    1.06951    0.39276   1.00
H1       0.47384    1.26591    0.40386   1.00
H1       0.36434    1.06552    0.44236   1.00
H1       0.35766    1.26348    0.43946   1.00
C6       0.31762    1.12015    0.46556   1.00
C6       0.30998    1.20619    0.45168   1.00
H2       0.33007    1.09845    0.48519   1.00
H2       0.30537    1.22810    0.42911   1.00
H2       0.30056    1.13786    0.48559   1.00
H2       0.28486    1.18728    0.44748   1.00
C6       0.28951    1.10106    0.43493   1.00
C6       0.30804    1.22442    0.49359   1.00
H2       0.30665    1.08792    0.41145   1.00
H2       0.33571    1.23883    0.50025   1.00
C6       0.26005    1.06959    0.45004   1.00
C6       0.27439    1.25411    0.50215   1.00
H2       0.27290    1.12449    0.42109   1.00
H2       0.30580    1.20046    0.51450   1.00
C6       0.28132    1.03235    0.46454   1.00
C6       0.27901    1.29208    0.47794   1.00
C6       0.23396    1.08574    0.48324   1.00
C6       0.23375    1.23607    0.49399   1.00
C6       0.23307    1.05745    0.41572   1.00
C6       0.27606    1.26554    0.54597   1.00
H2       0.30049    1.02058    0.44196   1.00
H2       0.30769    1.30520    0.48257   1.00
H2       0.29902    1.03830    0.49025   1.00
H2       0.27572    1.28654    0.44683   1.00
H2       0.26051    1.00959    0.47246   1.00
H2       0.25703    1.31363    0.48608   1.00
H2       0.21171    1.06455    0.49164   1.00
H2       0.21045    1.25598    0.50268   1.00
H2       0.25122    1.09225    0.50915   1.00
H2       0.23002    1.22994    0.46300   1.00
H2       0.21927    1.11245    0.47406   1.00
H2       0.23006    1.20885    0.51007   1.00
H2       0.25005    1.04542    0.39159   1.00
H2       0.30410    1.27883    0.55321   1.00
H2       0.21208    1.03525    0.42479   1.00
H2       0.25322    1.28649    0.55335   1.00
H2       0.21662    1.08239    0.40470   1.00
H2       0.27217    1.24002    0.56463   1.00
C4       0.18475    0.91920    0.41270   1.00
C4       0.14309    0.92061    0.41334   1.00
C3       0.20603    0.90420    0.38027   1.00
C3       0.11996    0.91099    0.38016   1.00
C3       0.20646    0.93315    0.44550   1.00
C3       0.12330    0.93207    0.44825   1.00
C2       0.26905    0.91810    0.41055   1.00
C2       0.05878    0.92159    0.41519   1.00
C3       0.24689    0.90382    0.37908   1.00
C3       0.07909    0.91125    0.38103   1.00
C3       0.24804    0.93245    0.44303   1.00
C3       0.08164    0.93175    0.44800   1.00
H1       0.19263    0.89263    0.35646   1.00
H1       0.13194    0.90380    0.35398   1.00
C5       0.18665    0.94707    0.47964   1.00
C5       0.14502    0.94365    0.48209   1.00
H1       0.26049    0.89276    0.35478   1.00
H1       0.06409    0.90386    0.35616   1.00
H1       0.26448    0.94236    0.46566   1.00
H1       0.06652    0.93946    0.47234   1.00
C6       0.20985    0.96556    0.51238   1.00
C6       0.12381    0.95168    0.52002   1.00
H2       0.23155    0.98519    0.49993   1.00
H2       0.10190    0.92911    0.52463   1.00
H2       0.19214    0.98559    0.52944   1.00
H2       0.14272    0.94748    0.54514   1.00
C6       0.22894    0.93493    0.54049   1.00
C6       0.10558    0.99359    0.52196   1.00
H2       0.24208    0.91145    0.52335   1.00
H2       0.09117    1.00025    0.49429   1.00
C6       0.26041    0.95004    0.56995   1.00
C6       0.07589    1.00215    0.55561   1.00
H2       0.20551    0.92109    0.55710   1.00
H2       0.12954    1.01450    0.52420   1.00
C6       0.29765    0.96454    0.54868   1.00
C6       0.03792    0.97794    0.55099   1.00
C6       0.24426    0.98324    0.59604   1.00
C6       0.09393    0.99399    0.59625   1.00
C6       0.27255    0.91572    0.59693   1.00
C6       0.06446    1.04597    0.55394   1.00
H2       0.30942    0.94196    0.52951   1.00
H2       0.02480    0.98257    0.52231   1.00
H2       0.29170    0.99025    0.53098   1.00
H2       0.04346    0.94683    0.55428   1.00
H2       0.32041    0.97246    0.56949   1.00
H2       0.01637    0.98608    0.57297   1.00
H2       0.26545    0.99164    0.61829   1.00
H2       0.07402    1.00268    0.61955   1.00
H2       0.23775    1.00915    0.57878   1.00
H2       0.10006    0.96300    0.59998   1.00
H2       0.21755    0.97406    0.61073   1.00
H2       0.12115    1.01007    0.59994   1.00
H2       0.28458    0.89159    0.57995   1.00
H2       0.05117    1.05321    0.52590   1.00
H2       0.29475    0.92479    0.61792   1.00
H2       0.04351    1.05335    0.57678   1.00
H2       0.24761    0.90470    0.61338   1.00
H2       0.08998    1.06463    0.55783   1.00
C4       0.64525    0.91920    0.41730   1.00
C4       0.68691    0.92061    0.41666   1.00
C3       0.62397    0.90420    0.44973   1.00
C3       0.71004    0.91099    0.44984   1.00
C3       0.62354    0.93315    0.38450   1.00
C3       0.70670    0.93207    0.38175   1.00
C2       0.56095    0.91810    0.41945   1.00
C2       0.77122    0.92159    0.41481   1.00
C3       0.58311    0.90382    0.45092   1.00
C3       0.75091    0.91125    0.44897   1.00
C3       0.58196    0.93245    0.38697   1.00
C3       0.74836    0.93175    0.38200   1.00
H1       0.63737    0.89263    0.47354   1.00
H1       0.69806    0.90380    0.47602   1.00
C5       0.64335    0.94707    0.35036   1.00
C5       0.68498    0.94365    0.34791   1.00
H1       0.56951    0.89276    0.47522   1.00
H1       0.76591    0.90386    0.47384   1.00
H1       0.56552    0.94236    0.36434   1.00
H1       0.76348    0.93946    0.35766   1.00
C6       0.62015    0.96556    0.31762   1.00
C6       0.70619    0.95168    0.30998   1.00
H2       0.59845    0.98519    0.33007   1.00
H2       0.72810    0.92911    0.30537   1.00
H2       0.63786    0.98559    0.30056   1.00
H2       0.68728    0.94748    0.28486   1.00
C6       0.60106    0.93493    0.28951   1.00
C6       0.72442    0.99359    0.30804   1.00
H2       0.58792    0.91145    0.30665   1.00
H2       0.73883    1.00025    0.33571   1.00
C6       0.56959    0.95004    0.26005   1.00
C6       0.75411    1.00215    0.27439   1.00
H2       0.62449    0.92109    0.27290   1.00
H2       0.70046    1.01450    0.30580   1.00
C6       0.53235    0.96454    0.28132   1.00
C6       0.79208    0.97794    0.27901   1.00
C6       0.58574    0.98324    0.23396   1.00
C6       0.73607    0.99399    0.23375   1.00
C6       0.55745    0.91572    0.23307   1.00
C6       0.76554    1.04597    0.27606   1.00
H2       0.52058    0.94196    0.30049   1.00
H2       0.80520    0.98257    0.30769   1.00
H2       0.53830    0.99025    0.29902   1.00
H2       0.78654    0.94683    0.27572   1.00
H2       0.50959    0.97246    0.26051   1.00
H2       0.81363    0.98608    0.25703   1.00
H2       0.56455    0.99164    0.21171   1.00
H2       0.75598    1.00268    0.21045   1.00
H2       0.59225    1.00915    0.25122   1.00
H2       0.72994    0.96300    0.23002   1.00
H2       0.61245    0.97406    0.21927   1.00
H2       0.70885    1.01007    0.23006   1.00
H2       0.54542    0.89159    0.25005   1.00
H2       0.77883    1.05321    0.30410   1.00
H2       0.53525    0.92479    0.21208   1.00
H2       0.78649    1.05335    0.25322   1.00
H2       0.58239    0.90470    0.21662   1.00
H2       0.74002    1.06463    0.27217   1.00
C4       0.41270    0.68475    0.41920   1.00
C4       0.41334    0.64309    0.42061   1.00
C3       0.38027    0.70603    0.40420   1.00
C3       0.38016    0.61996    0.41099   1.00
C3       0.44550    0.70646    0.43315   1.00
C3       0.44825    0.62330    0.43207   1.00
C2       0.41055    0.76905    0.41810   1.00
C2       0.41519    0.55878    0.42159   1.00
C3       0.37908    0.74689    0.40382   1.00
C3       0.38103    0.57909    0.41125   1.00
C3       0.44303    0.74804    0.43245   1.00
C3       0.44800    0.58164    0.43175   1.00
H1       0.35646    0.69263    0.39263   1.00
H1       0.35398    0.63194    0.40380   1.00
C5       0.47964    0.68665    0.44707   1.00
C5       0.48209    0.64502    0.44365   1.00
H1       0.35478    0.76049    0.39276   1.00
H1       0.35616    0.56409    0.40386   1.00
H1       0.46566    0.76448    0.44236   1.00
H1       0.47234    0.56652    0.43946   1.00
C6       0.51238    0.70985    0.46556   1.00
C6       0.52002    0.62381    0.45168   1.00
H2       0.49993    0.73155    0.48519   1.00
H2       0.52463    0.60190    0.42911   1.00
H2       0.52944    0.69214    0.48559   1.00
H2       0.54514    0.64272    0.44748   1.00
C6       0.54049    0.72894    0.43493   1.00
C6       0.52196    0.60558    0.49359   1.00
H2       0.52335    0.74208    0.41145   1.00
H2       0.49429    0.59117    0.50025   1.00
C6       0.56995    0.76041    0.45004   1.00
C6       0.55561    0.57589    0.50215   1.00
H2       0.55710    0.70551    0.42109   1.00
H2       0.52420    0.62954    0.51450   1.00
C6       0.54868    0.79765    0.46454   1.00
C6       0.55099    0.53792    0.47794   1.00
C6       0.59604    0.74426    0.48324   1.00
C6       0.59625    0.59393    0.49399   1.00
C6       0.59693    0.77255    0.41572   1.00
C6       0.55394    0.56446    0.54597   1.00
H2       0.52951    0.80942    0.44196   1.00
H2       0.52231    0.52480    0.48257   1.00
H2       0.53098    0.79170    0.49025   1.00
H2       0.55428    0.54346    0.44683   1.00
H2       0.56949    0.82041    0.47246   1.00
H2       0.57297    0.51637    0.48608   1.00
H2       0.61829    0.76545    0.49164   1.00
H2       0.61955    0.57402    0.50268   1.00
H2       0.57878    0.73775    0.50915   1.00
H2       0.59998    0.60006    0.46300   1.00
H2       0.61073    0.71755    0.47406   1.00
H2       0.59994    0.62115    0.51007   1.00
H2       0.57995    0.78458    0.39159   1.00
H2       0.52590    0.55117    0.55321   1.00
H2       0.61792    0.79475    0.42479   1.00
H2       0.57678    0.54351    0.55335   1.00
H2       0.61338    0.74761    0.40470   1.00
H2       0.55783    0.58998    0.56463   1.00
C4       0.41920    0.91270    0.18475   1.00
C4       0.42061    0.91334    0.14309   1.00
C3       0.40420    0.88027    0.20603   1.00
C3       0.41099    0.88016    0.11996   1.00
C3       0.43315    0.94550    0.20646   1.00
C3       0.43207    0.94825    0.12330   1.00
C2       0.41810    0.91055    0.26905   1.00
C2       0.42159    0.91519    0.05878   1.00
C3       0.40382    0.87908    0.24689   1.00
C3       0.41125    0.88103    0.07909   1.00
C3       0.43245    0.94303    0.24804   1.00
C3       0.43175    0.94800    0.08164   1.00
H1       0.39263    0.85646    0.19263   1.00
H1       0.40380    0.85398    0.13194   1.00
C5       0.44707    0.97964    0.18665   1.00
C5       0.44365    0.98209    0.14502   1.00
H1       0.39276    0.85478    0.26049   1.00
H1       0.40386    0.85616    0.06409   1.00
H1       0.44236    0.96566    0.26448   1.00
H1       0.43946    0.97234    0.06652   1.00
C6       0.46556    1.01238    0.20985   1.00
C6       0.45168    1.02002    0.12381   1.00
H2       0.48519    0.99993    0.23155   1.00
H2       0.42911    1.02463    0.10190   1.00
H2       0.48559    1.02944    0.19214   1.00
H2       0.44748    1.04514    0.14272   1.00
C6       0.43493    1.04049    0.22894   1.00
C6       0.49359    1.02196    0.10558   1.00
H2       0.41145    1.02335    0.24208   1.00
H2       0.50025    0.99429    0.09117   1.00
C6       0.45004    1.06995    0.26041   1.00
C6       0.50215    1.05561    0.07589   1.00
H2       0.42109    1.05710    0.20551   1.00
H2       0.51450    1.02420    0.12954   1.00
C6       0.46454    1.04868    0.29765   1.00
C6       0.47794    1.05099    0.03792   1.00
C6       0.48324    1.09604    0.24426   1.00
C6       0.49399    1.09625    0.09393   1.00
C6       0.41572    1.09693    0.27255   1.00
C6       0.54597    1.05394    0.06446   1.00
H2       0.44196    1.02951    0.30942   1.00
H2       0.48257    1.02231    0.02480   1.00
H2       0.49025    1.03098    0.29170   1.00
H2       0.44683    1.05428    0.04346   1.00
H2       0.47246    1.06949    0.32041   1.00
H2       0.48608    1.07297    0.01637   1.00
H2       0.49164    1.11829    0.26545   1.00
H2       0.50268    1.11955    0.07402   1.00
H2       0.50915    1.07878    0.23775   1.00
H2       0.46300    1.09998    0.10006   1.00
H2       0.47406    1.11073    0.21755   1.00
H2       0.51007    1.09994    0.12115   1.00
H2       0.39159    1.07995    0.28458   1.00
H2       0.55321    1.02590    0.05117   1.00
H2       0.42479    1.11792    0.29475   1.00
H2       0.55335    1.07678    0.04351   1.00
H2       0.40470    1.11338    0.24761   1.00
H2       0.56463    1.05783    0.08998   1.00
C4       0.91920    0.41730    0.64525   1.00
C4       0.92061    0.41666    0.68691   1.00
C3       0.90420    0.44973    0.62397   1.00
C3       0.91099    0.44984    0.71004   1.00
C3       0.93315    0.38450    0.62354   1.00
C3       0.93207    0.38175    0.70670   1.00
C2       0.91810    0.41945    0.56095   1.00
C2       0.92159    0.41481    0.77122   1.00
C3       0.90382    0.45092    0.58311   1.00
C3       0.91125    0.44897    0.75091   1.00
C3       0.93245    0.38697    0.58196   1.00
C3       0.93175    0.38200    0.74836   1.00
H1       0.89263    0.47354    0.63737   1.00
H1       0.90380    0.47602    0.69806   1.00
C5       0.94707    0.35036    0.64335   1.00
C5       0.94365    0.34791    0.68498   1.00
H1       0.89276    0.47522    0.56951   1.00
H1       0.90386    0.47384    0.76591   1.00
H1       0.94236    0.36434    0.56552   1.00
H1       0.93946    0.35766    0.76348   1.00
C6       0.96556    0.31762    0.62015   1.00
C6       0.95168    0.30998    0.70619   1.00
H2       0.98519    0.33007    0.59845   1.00
H2       0.92911    0.30537    0.72810   1.00
H2       0.98559    0.30056    0.63786   1.00
H2       0.94748    0.28486    0.68728   1.00
C6       0.93493    0.28951    0.60106   1.00
C6       0.99359    0.30804    0.72442   1.00
H2       0.91145    0.30665    0.58792   1.00
H2       1.00025    0.33571    0.73883   1.00
C6       0.95004    0.26005    0.56959   1.00
C6       1.00215    0.27439    0.75411   1.00
H2       0.92109    0.27290    0.62449   1.00
H2       1.01450    0.30580    0.70046   1.00
C6       0.96454    0.28132    0.53235   1.00
C6       0.97794    0.27901    0.79208   1.00
C6       0.98324    0.23396    0.58574   1.00
C6       0.99399    0.23375    0.73607   1.00
C6       0.91572    0.23307    0.55745   1.00
C6       1.04597    0.27606    0.76554   1.00
H2       0.94196    0.30049    0.52058   1.00
H2       0.98257    0.30769    0.80520   1.00
H2       0.99025    0.29902    0.53830   1.00
H2       0.94683    0.27572    0.78654   1.00
H2       0.97246    0.26051    0.50959   1.00
H2       0.98608    0.25703    0.81363   1.00
H2       0.99164    0.21171    0.56455   1.00
H2       1.00268    0.21045    0.75598   1.00
H2       1.00915    0.25122    0.59225   1.00
H2       0.96300    0.23002    0.72994   1.00
H2       0.97406    0.21927    0.61245   1.00
H2       1.01007    0.23006    0.70885   1.00
H2       0.89159    0.25005    0.54542   1.00
H2       1.05321    0.30410    0.77883   1.00
H2       0.92479    0.21208    0.53525   1.00
H2       1.05335    0.25322    0.78649   1.00
H2       0.90470    0.21662    0.58239   1.00
H2       1.06463    0.27217    0.74002   1.00
C4       0.91730    0.64525    0.41920   1.00
C4       0.91666    0.68691    0.42061   1.00
C3       0.94973    0.62397    0.40420   1.00
C3       0.94984    0.71004    0.41099   1.00
C3       0.88450    0.62354    0.43315   1.00
C3       0.88175    0.70670    0.43207   1.00
C2       0.91945    0.56095    0.41810   1.00
C2       0.91481    0.77122    0.42159   1.00
C3       0.95092    0.58311    0.40382   1.00
C3       0.94897    0.75091    0.41125   1.00
C3       0.88697    0.58196    0.43245   1.00
C3       0.88200    0.74836    0.43175   1.00
H1       0.97354    0.63737    0.39263   1.00
H1       0.97602    0.69806    0.40380   1.00
C5       0.85036    0.64335    0.44707   1.00
C5       0.84791    0.68498    0.44365   1.00
H1       0.97522    0.56951    0.39276   1.00
H1       0.97384    0.76591    0.40386   1.00
H1       0.86434    0.56552    0.44236   1.00
H1       0.85766    0.76348    0.43946   1.00
C6       0.81762    0.62015    0.46556   1.00
C6       0.80998    0.70619    0.45168   1.00
H2       0.83007    0.59845    0.48519   1.00
H2       0.80537    0.72810    0.42911   1.00
H2       0.80056    0.63786    0.48559   1.00
H2       0.78486    0.68728    0.44748   1.00
C6       0.78951    0.60106    0.43493   1.00
C6       0.80804    0.72442    0.49359   1.00
H2       0.80665    0.58792    0.41145   1.00
H2       0.83571    0.73883    0.50025   1.00
C6       0.76005    0.56959    0.45004   1.00
C6       0.77439    0.75411    0.50215   1.00
H2       0.77290    0.62449    0.42109   1.00
H2       0.80580    0.70046    0.51450   1.00
C6       0.78132    0.53235    0.46454   1.00
C6       0.77901    0.79208    0.47794   1.00
C6       0.73396    0.58574    0.48324   1.00
C6       0.73375    0.73607    0.49399   1.00
C6       0.73307    0.55745    0.41572   1.00
C6       0.77606    0.76554    0.54597   1.00
H2       0.80049    0.52058    0.44196   1.00
H2       0.80769    0.80520    0.48257   1.00
H2       0.79902    0.53830    0.49025   1.00
H2       0.77572    0.78654    0.44683   1.00
H2       0.76051    0.50959    0.47246   1.00
H2       0.75703    0.81363    0.48608   1.00
H2       0.71171    0.56455    0.49164   1.00
H2       0.71045    0.75598    0.50268   1.00
H2       0.75122    0.59225    0.50915   1.00
H2       0.73002    0.72994    0.46300   1.00
H2       0.71927    0.61245    0.47406   1.00
H2       0.73006    0.70885    0.51007   1.00
H2       0.75005    0.54542    0.39159   1.00
H2       0.80410    0.77883    0.55321   1.00
H2       0.71208    0.53525    0.42479   1.00
H2       0.75322    0.78649    0.55335   1.00
H2       0.71662    0.58239    0.40470   1.00
H2       0.77217    0.74002    0.56463   1.00
C4       0.68475    0.41920    0.41270   1.00
C4       0.64309    0.42061    0.41334   1.00
C3       0.70603    0.40420    0.38027   1.00
C3       0.61996    0.41099    0.38016   1.00
C3       0.70646    0.43315    0.44550   1.00
C3       0.62330    0.43207    0.44825   1.00
C2       0.76905    0.41810    0.41055   1.00
C2       0.55878    0.42159    0.41519   1.00
C3       0.74689    0.40382    0.37908   1.00
C3       0.57909    0.41125    0.38103   1.00
C3       0.74804    0.43245    0.44303   1.00
C3       0.58164    0.43175    0.44800   1.00
H1       0.69263    0.39263    0.35646   1.00
H1       0.63194    0.40380    0.35398   1.00
C5       0.68665    0.44707    0.47964   1.00
C5       0.64502    0.44365    0.48209   1.00
H1       0.76049    0.39276    0.35478   1.00
H1       0.56409    0.40386    0.35616   1.00
H1       0.76448    0.44236    0.46566   1.00
H1       0.56652    0.43946    0.47234   1.00
C6       0.70985    0.46556    0.51238   1.00
C6       0.62381    0.45168    0.52002   1.00
H2       0.73155    0.48519    0.49993   1.00
H2       0.60190    0.42911    0.52463   1.00
H2       0.69214    0.48559    0.52944   1.00
H2       0.64272    0.44748    0.54514   1.00
C6       0.72894    0.43493    0.54049   1.00
C6       0.60558    0.49359    0.52196   1.00
H2       0.74208    0.41145    0.52335   1.00
H2       0.59117    0.50025    0.49429   1.00
C6       0.76041    0.45004    0.56995   1.00
C6       0.57589    0.50215    0.55561   1.00
H2       0.70551    0.42109    0.55710   1.00
H2       0.62954    0.51450    0.52420   1.00
C6       0.79765    0.46454    0.54868   1.00
C6       0.53792    0.47794    0.55099   1.00
C6       0.74426    0.48324    0.59604   1.00
C6       0.59393    0.49399    0.59625   1.00
C6       0.77255    0.41572    0.59693   1.00
C6       0.56446    0.54597    0.55394   1.00
H2       0.80942    0.44196    0.52951   1.00
H2       0.52480    0.48257    0.52231   1.00
H2       0.79170    0.49025    0.53098   1.00
H2       0.54346    0.44683    0.55428   1.00
H2       0.82041    0.47246    0.56949   1.00
H2       0.51637    0.48608    0.57297   1.00
H2       0.76545    0.49164    0.61829   1.00
H2       0.57402    0.50268    0.61955   1.00
H2       0.73775    0.50915    0.57878   1.00
H2       0.60006    0.46300    0.59998   1.00
H2       0.71755    0.47406    0.61073   1.00
H2       0.62115    0.51007    0.59994   1.00
H2       0.78458    0.39159    0.57995   1.00
H2       0.55117    0.55321    0.52590   1.00
H2       0.79475    0.42479    0.61792   1.00
H2       0.54351    0.55335    0.57678   1.00
H2       0.74761    0.40470    0.61338   1.00
H2       0.58998    0.56463    0.55783   1.00
C4       1.14525    0.41920    0.41730   1.00
C4       1.18691    0.42061    0.41666   1.00
C3       1.12397    0.40420    0.44973   1.00
C3       1.21004    0.41099    0.44984   1.00
C3       1.12354    0.43315    0.38450   1.00
C3       1.20670    0.43207    0.38175   1.00
C2       1.06095    0.41810    0.41945   1.00
C2       1.27122    0.42159    0.41481   1.00
C3       1.08311    0.40382    0.45092   1.00
C3       1.25091    0.41125    0.44897   1.00
C3       1.08196    0.43245    0.38697   1.00
C3       1.24836    0.43175    0.38200   1.00
H1       1.13737    0.39263    0.47354   1.00
H1       1.19806    0.40380    0.47602   1.00
C5       1.14335    0.44707    0.35036   1.00
C5       1.18498    0.44365    0.34791   1.00
H1       1.06951    0.39276    0.47522   1.00
H1       1.26591    0.40386    0.47384   1.00
H1       1.06552    0.44236    0.36434   1.00
H1       1.26348    0.43946    0.35766   1.00
C6       1.12015    0.46556    0.31762   1.00
C6       1.20619    0.45168    0.30998   1.00
H2       1.09845    0.48519    0.33007   1.00
H2       1.22810    0.42911    0.30537   1.00
H2       1.13786    0.48559    0.30056   1.00
H2       1.18728    0.44748    0.28486   1.00
C6       1.10106    0.43493    0.28951   1.00
C6       1.22442    0.49359    0.30804   1.00
H2       1.08792    0.41145    0.30665   1.00
H2       1.23883    0.50025    0.33571   1.00
C6       1.06959    0.45004    0.26005   1.00
C6       1.25411    0.50215    0.27439   1.00
H2       1.12449    0.42109    0.27290   1.00
H2       1.20046    0.51450    0.30580   1.00
C6       1.03235    0.46454    0.28132   1.00
C6       1.29208    0.47794    0.27901   1.00
C6       1.08574    0.48324    0.23396   1.00
C6       1.23607    0.49399    0.23375   1.00
C6       1.05745    0.41572    0.23307   1.00
C6       1.26554    0.54597    0.27606   1.00
H2       1.02058    0.44196    0.30049   1.00
H2       1.30520    0.48257    0.30769   1.00
H2       1.03830    0.49025    0.29902   1.00
H2       1.28654    0.44683    0.27572   1.00
H2       1.00959    0.47246    0.26051   1.00
H2       1.31363    0.48608    0.25703   1.00
H2       1.06455    0.49164    0.21171   1.00
H2       1.25598    0.50268    0.21045   1.00
H2       1.09225    0.50915    0.25122   1.00
H2       1.22994    0.46300    0.23002   1.00
H2       1.11245    0.47406    0.21927   1.00
H2       1.20885    0.51007    0.23006   1.00
H2       1.04542    0.39159    0.25005   1.00
H2       1.27883    0.55321    0.30410   1.00
H2       1.03525    0.42479    0.21208   1.00
H2       1.28649    0.55335    0.25322   1.00
H2       1.08239    0.40470    0.21662   1.00
H2       1.24002    0.56463    0.27217   1.00
C4       0.91270    0.18475    0.41920   1.00
C4       0.91334    0.14309    0.42061   1.00
C3       0.88027    0.20603    0.40420   1.00
C3       0.88016    0.11996    0.41099   1.00
C3       0.94550    0.20646    0.43315   1.00
C3       0.94825    0.12330    0.43207   1.00
C2       0.91055    0.26905    0.41810   1.00
C2       0.91519    0.05878    0.42159   1.00
C3       0.87908    0.24689    0.40382   1.00
C3       0.88103    0.07909    0.41125   1.00
C3       0.94303    0.24804    0.43245   1.00
C3       0.94800    0.08164    0.43175   1.00
H1       0.85646    0.19263    0.39263   1.00
H1       0.85398    0.13194    0.40380   1.00
C5       0.97964    0.18665    0.44707   1.00
C5       0.98209    0.14502    0.44365   1.00
H1       0.85478    0.26049    0.39276   1.00
H1       0.85616    0.06409    0.40386   1.00
H1       0.96566    0.26448    0.44236   1.00
H1       0.97234    0.06652    0.43946   1.00
C6       1.01238    0.20985    0.46556   1.00
C6       1.02002    0.12381    0.45168   1.00
H2       0.99993    0.23155    0.48519   1.00
H2       1.02463    0.10190    0.42911   1.00
H2       1.02944    0.19214    0.48559   1.00
H2       1.04514    0.14272    0.44748   1.00
C6       1.04049    0.22894    0.43493   1.00
C6       1.02196    0.10558    0.49359   1.00
H2       1.02335    0.24208    0.41145   1.00
H2       0.99429    0.09117    0.50025   1.00
C6       1.06995    0.26041    0.45004   1.00
C6       1.05561    0.07589    0.50215   1.00
H2       1.05710    0.20551    0.42109   1.00
H2       1.02420    0.12954    0.51450   1.00
C6       1.04868    0.29765    0.46454   1.00
C6       1.05099    0.03792    0.47794   1.00
C6       1.09604    0.24426    0.48324   1.00
C6       1.09625    0.09393    0.49399   1.00
C6       1.09693    0.27255    0.41572   1.00
C6       1.05394    0.06446    0.54597   1.00
H2       1.02951    0.30942    0.44196   1.00
H2       1.02231    0.02480    0.48257   1.00
H2       1.03098    0.29170    0.49025   1.00
H2       1.05428    0.04346    0.44683   1.00
H2       1.06949    0.32041    0.47246   1.00
H2       1.07297    0.01637    0.48608   1.00
H2       1.11829    0.26545    0.49164   1.00
H2       1.11955    0.07402    0.50268   1.00
H2       1.07878    0.23775    0.50915   1.00
H2       1.09998    0.10006    0.46300   1.00
H2       1.11073    0.21755    0.47406   1.00
H2       1.09994    0.12115    0.51007   1.00
H2       1.07995    0.28458    0.39159   1.00
H2       1.02590    0.05117    0.55321   1.00
H2       1.11792    0.29475    0.42479   1.00
H2       1.07678    0.04351    0.55335   1.00
H2       1.11338    0.24761    0.40470   1.00
H2       1.05783    0.08998    0.56463   1.00
C4       0.91920    0.41270    0.18475   1.00
C4       0.92061    0.41334    0.14309   1.00
C3       0.90420    0.38027    0.20603   1.00
C3       0.91099    0.38016    0.11996   1.00
C3       0.93315    0.44550    0.20646   1.00
C3       0.93207    0.44825    0.12330   1.00
C2       0.91810    0.41055    0.26905   1.00
C2       0.92159    0.41519    0.05878   1.00
C3       0.90382    0.37908    0.24689   1.00
C3       0.91125    0.38103    0.07909   1.00
C3       0.93245    0.44303    0.24804   1.00
C3       0.93175    0.44800    0.08164   1.00
H1       0.89263    0.35646    0.19263   1.00
H1       0.90380    0.35398    0.13194   1.00
C5       0.94707    0.47964    0.18665   1.00
C5       0.94365    0.48209    0.14502   1.00
H1       0.89276    0.35478    0.26049   1.00
H1       0.90386    0.35616    0.06409   1.00
H1       0.94236    0.46566    0.26448   1.00
H1       0.93946    0.47234    0.06652   1.00
C6       0.96556    0.51238    0.20985   1.00
C6       0.95168    0.52002    0.12381   1.00
H2       0.98519    0.49993    0.23155   1.00
H2       0.92911    0.52463    0.10190   1.00
H2       0.98559    0.52944    0.19214   1.00
H2       0.94748    0.54514    0.14272   1.00
C6       0.93493    0.54049    0.22894   1.00
C6       0.99359    0.52196    0.10558   1.00
H2       0.91145    0.52335    0.24208   1.00
H2       1.00025    0.49429    0.09117   1.00
C6       0.95004    0.56995    0.26041   1.00
C6       1.00215    0.55561    0.07589   1.00
H2       0.92109    0.55710    0.20551   1.00
H2       1.01450    0.52420    0.12954   1.00
C6       0.96454    0.54868    0.29765   1.00
C6       0.97794    0.55099    0.03792   1.00
C6       0.98324    0.59604    0.24426   1.00
C6       0.99399    0.59625    0.09393   1.00
C6       0.91572    0.59693    0.27255   1.00
C6       1.04597    0.55394    0.06446   1.00
H2       0.94196    0.52951    0.30942   1.00
H2       0.98257    0.52231    0.02480   1.00
H2       0.99025    0.53098    0.29170   1.00
H2       0.94683    0.55428    0.04346   1.00
H2       0.97246    0.56949    0.32041   1.00
H2       0.98608    0.57297    0.01637   1.00
H2       0.99164    0.61829    0.26545   1.00
H2       1.00268    0.61955    0.07402   1.00
H2       1.00915    0.57878    0.23775   1.00
H2       0.96300    0.59998    0.10006   1.00
H2       0.97406    0.61073    0.21755   1.00
H2       1.01007    0.59994    0.12115   1.00
H2       0.89159    0.57995    0.28458   1.00
H2       1.05321    0.52590    0.05117   1.00
H2       0.92479    0.61792    0.29475   1.00
H2       1.05335    0.57678    0.04351   1.00
H2       0.90470    0.61338    0.24761   1.00
H2       1.06463    0.55783    0.08998   1.00
