data_IRMOF10_SG202_interpen_Ligand12cp_label_o.

_audit_creation_method             'generated by an auxiliary program of Tobunporous'

_symmetry_space_group_name_H-M     'P 1'
_symmetry_Int_Tables_number        1
_symmetry_cell_setting             triclinic

_cell_length_a                    34.2800
_cell_length_b                    34.2800
_cell_length_c                    34.2800
_cell_angle_alpha                 90.0000
_cell_angle_beta                  90.0000
_cell_angle_gamma                 90.0000

loop_
_atom_site_label
_atom_site_fract_x
_atom_site_fract_y
_atom_site_fract_z
_atom_site_occupancy
O1       0.75000    0.75000    0.75000   1.00
Zn1      0.71720    0.78280    0.78280   1.00
Zn1      0.78280    0.71720    0.78280   1.00
Zn1      0.78280    0.78280    0.71720   1.00
Zn1      0.71720    0.71720    0.71720   1.00
O2       0.72650    0.77350    0.83820   1.00
O2       0.72650    0.83820    0.77350   1.00
O2       0.66180    0.77350    0.77350   1.00
O2       0.77350    0.72650    0.83820   1.00
O2       0.83820    0.72650    0.77350   1.00
O2       0.77350    0.66180    0.77350   1.00
O2       0.77350    0.83820    0.72650   1.00
O2       0.83820    0.77350    0.72650   1.00
O2       0.77350    0.77350    0.66180   1.00
O2       0.66180    0.72650    0.72650   1.00
O2       0.72650    0.66180    0.72650   1.00
O2       0.72650    0.72650    0.66180   1.00
C1       0.75000    0.75000    0.85520   1.00
C1       0.75000    0.85520    0.75000   1.00
C1       0.64480    0.75000    0.75000   1.00
C1       0.85520    0.75000    0.75000   1.00
C1       0.75000    0.64480    0.75000   1.00
C1       0.75000    0.75000    0.64480   1.00
O1       0.25000    0.25000    0.75000   1.00
Zn1      0.21720    0.28280    0.78280   1.00
Zn1      0.28280    0.21720    0.78280   1.00
Zn1      0.28280    0.28280    0.71720   1.00
Zn1      0.21720    0.21720    0.71720   1.00
O2       0.22650    0.27350    0.83820   1.00
O2       0.22650    0.33820    0.77350   1.00
O2       0.16180    0.27350    0.77350   1.00
O2       0.27350    0.22650    0.83820   1.00
O2       0.33820    0.22650    0.77350   1.00
O2       0.27350    0.16180    0.77350   1.00
O2       0.27350    0.33820    0.72650   1.00
O2       0.33820    0.27350    0.72650   1.00
O2       0.27350    0.27350    0.66180   1.00
O2       0.16180    0.22650    0.72650   1.00
O2       0.22650    0.16180    0.72650   1.00
O2       0.22650    0.22650    0.66180   1.00
C1       0.25000    0.25000    0.85520   1.00
C1       0.25000    0.35520    0.75000   1.00
C1       0.14480    0.25000    0.75000   1.00
C1       0.35520    0.25000    0.75000   1.00
C1       0.25000    0.14480    0.75000   1.00
C1       0.25000    0.25000    0.64480   1.00
O1       0.25000    0.75000    0.25000   1.00
Zn1      0.21720    0.78280    0.28280   1.00
Zn1      0.28280    0.71720    0.28280   1.00
Zn1      0.28280    0.78280    0.21720   1.00
Zn1      0.21720    0.71720    0.21720   1.00
O2       0.22650    0.77350    0.33820   1.00
O2       0.22650    0.83820    0.27350   1.00
O2       0.16180    0.77350    0.27350   1.00
O2       0.27350    0.72650    0.33820   1.00
O2       0.33820    0.72650    0.27350   1.00
O2       0.27350    0.66180    0.27350   1.00
O2       0.27350    0.83820    0.22650   1.00
O2       0.33820    0.77350    0.22650   1.00
O2       0.27350    0.77350    0.16180   1.00
O2       0.16180    0.72650    0.22650   1.00
O2       0.22650    0.66180    0.22650   1.00
O2       0.22650    0.72650    0.16180   1.00
C1       0.25000    0.75000    0.35520   1.00
C1       0.25000    0.85520    0.25000   1.00
C1       0.14480    0.75000    0.25000   1.00
C1       0.35520    0.75000    0.25000   1.00
C1       0.25000    0.64480    0.25000   1.00
C1       0.25000    0.75000    0.14480   1.00
O1       0.75000    0.25000    0.25000   1.00
Zn1      0.71720    0.28280    0.28280   1.00
Zn1      0.78280    0.21720    0.28280   1.00
Zn1      0.78280    0.28280    0.21720   1.00
Zn1      0.71720    0.21720    0.21720   1.00
O2       0.72650    0.27350    0.33820   1.00
O2       0.72650    0.33820    0.27350   1.00
O2       0.66180    0.27350    0.27350   1.00
O2       0.77350    0.22650    0.33820   1.00
O2       0.83820    0.22650    0.27350   1.00
O2       0.77350    0.16180    0.27350   1.00
O2       0.77350    0.33820    0.22650   1.00
O2       0.83820    0.27350    0.22650   1.00
O2       0.77350    0.27350    0.16180   1.00
O2       0.66180    0.22650    0.22650   1.00
O2       0.72650    0.16180    0.22650   1.00
O2       0.72650    0.22650    0.16180   1.00
C1       0.75000    0.25000    0.35520   1.00
C1       0.75000    0.35520    0.25000   1.00
C1       0.64480    0.25000    0.25000   1.00
C1       0.85520    0.25000    0.25000   1.00
C1       0.75000    0.14480    0.25000   1.00
C1       0.75000    0.25000    0.14480   1.00
O1       0.25000    0.25000    0.25000   1.00
Zn1      0.28280    0.21720    0.21720   1.00
Zn1      0.21720    0.28280    0.21720   1.00
Zn1      0.21720    0.21720    0.28280   1.00
Zn1      0.28280    0.28280    0.28280   1.00
O2       0.27350    0.22650    0.16180   1.00
O2       0.27350    0.16180    0.22650   1.00
O2       0.33820    0.22650    0.22650   1.00
O2       0.22650    0.27350    0.16180   1.00
O2       0.16180    0.27350    0.22650   1.00
O2       0.22650    0.33820    0.22650   1.00
O2       0.22650    0.16180    0.27350   1.00
O2       0.16180    0.22650    0.27350   1.00
O2       0.22650    0.22650    0.33820   1.00
O2       0.33820    0.27350    0.27350   1.00
O2       0.27350    0.33820    0.27350   1.00
O2       0.27350    0.27350    0.33820   1.00
C1       0.25000    0.25000    0.14480   1.00
C1       0.25000    0.14480    0.25000   1.00
C1       0.35520    0.25000    0.25000   1.00
C1       0.14480    0.25000    0.25000   1.00
C1       0.25000    0.35520    0.25000   1.00
C1       0.25000    0.25000    0.35520   1.00
O1       0.75000    0.75000    0.25000   1.00
Zn1      0.78280    0.71720    0.21720   1.00
Zn1      0.71720    0.78280    0.21720   1.00
Zn1      0.71720    0.71720    0.28280   1.00
Zn1      0.78280    0.78280    0.28280   1.00
O2       0.77350    0.72650    0.16180   1.00
O2       0.77350    0.66180    0.22650   1.00
O2       0.83820    0.72650    0.22650   1.00
O2       0.72650    0.77350    0.16180   1.00
O2       0.66180    0.77350    0.22650   1.00
O2       0.72650    0.83820    0.22650   1.00
O2       0.72650    0.66180    0.27350   1.00
O2       0.66180    0.72650    0.27350   1.00
O2       0.72650    0.72650    0.33820   1.00
O2       0.83820    0.77350    0.27350   1.00
O2       0.77350    0.83820    0.27350   1.00
O2       0.77350    0.77350    0.33820   1.00
C1       0.75000    0.75000    0.14480   1.00
C1       0.75000    0.64480    0.25000   1.00
C1       0.85520    0.75000    0.25000   1.00
C1       0.64480    0.75000    0.25000   1.00
C1       0.75000    0.85520    0.25000   1.00
C1       0.75000    0.75000    0.35520   1.00
O1       0.75000    0.25000    0.75000   1.00
Zn1      0.78280    0.21720    0.71720   1.00
Zn1      0.71720    0.28280    0.71720   1.00
Zn1      0.71720    0.21720    0.78280   1.00
Zn1      0.78280    0.28280    0.78280   1.00
O2       0.77350    0.22650    0.66180   1.00
O2       0.77350    0.16180    0.72650   1.00
O2       0.83820    0.22650    0.72650   1.00
O2       0.72650    0.27350    0.66180   1.00
O2       0.66180    0.27350    0.72650   1.00
O2       0.72650    0.33820    0.72650   1.00
O2       0.72650    0.16180    0.77350   1.00
O2       0.66180    0.22650    0.77350   1.00
O2       0.72650    0.22650    0.83820   1.00
O2       0.83820    0.27350    0.77350   1.00
O2       0.77350    0.33820    0.77350   1.00
O2       0.77350    0.27350    0.83820   1.00
C1       0.75000    0.25000    0.64480   1.00
C1       0.75000    0.14480    0.75000   1.00
C1       0.85520    0.25000    0.75000   1.00
C1       0.64480    0.25000    0.75000   1.00
C1       0.75000    0.35520    0.75000   1.00
C1       0.75000    0.25000    0.85520   1.00
O1       0.25000    0.75000    0.75000   1.00
Zn1      0.28280    0.71720    0.71720   1.00
Zn1      0.21720    0.78280    0.71720   1.00
Zn1      0.21720    0.71720    0.78280   1.00
Zn1      0.28280    0.78280    0.78280   1.00
O2       0.27350    0.72650    0.66180   1.00
O2       0.27350    0.66180    0.72650   1.00
O2       0.33820    0.72650    0.72650   1.00
O2       0.22650    0.77350    0.66180   1.00
O2       0.16180    0.77350    0.72650   1.00
O2       0.22650    0.83820    0.72650   1.00
O2       0.22650    0.66180    0.77350   1.00
O2       0.16180    0.72650    0.77350   1.00
O2       0.22650    0.72650    0.83820   1.00
O2       0.33820    0.77350    0.77350   1.00
O2       0.27350    0.83820    0.77350   1.00
O2       0.27350    0.77350    0.83820   1.00
C1       0.25000    0.75000    0.64480   1.00
C1       0.25000    0.64480    0.75000   1.00
C1       0.35520    0.75000    0.75000   1.00
C1       0.14480    0.75000    0.75000   1.00
C1       0.25000    0.85520    0.75000   1.00
C1       0.25000    0.75000    0.85520   1.00
O1       0.91500    0.91500    0.91500   1.00
Zn1      0.88220    0.94780    0.94780   1.00
Zn1      0.94780    0.88220    0.94780   1.00
Zn1      0.94780    0.94780    0.88220   1.00
Zn1      0.88220    0.88220    0.88220   1.00
O2       0.89150    0.93850    1.00320   1.00
O2       0.89150    1.00320    0.93850   1.00
O2       0.82680    0.93850    0.93850   1.00
O2       0.93850    0.89150    1.00320   1.00
O2       1.00320    0.89150    0.93850   1.00
O2       0.93850    0.82680    0.93850   1.00
O2       0.93850    1.00320    0.89150   1.00
O2       1.00320    0.93850    0.89150   1.00
O2       0.93850    0.93850    0.82680   1.00
O2       0.82680    0.89150    0.89150   1.00
O2       0.89150    0.82680    0.89150   1.00
O2       0.89150    0.89150    0.82680   1.00
C1       0.91500    0.91500    1.02020   1.00
C1       0.91500    1.02020    0.91500   1.00
C1       0.80980    0.91500    0.91500   1.00
C1       1.02020    0.91500    0.91500   1.00
C1       0.91500    0.80980    0.91500   1.00
C1       0.91500    0.91500    0.80980   1.00
O1       0.41500    0.41500    0.91500   1.00
Zn1      0.38220    0.44780    0.94780   1.00
Zn1      0.44780    0.38220    0.94780   1.00
Zn1      0.44780    0.44780    0.88220   1.00
Zn1      0.38220    0.38220    0.88220   1.00
O2       0.39150    0.43850    1.00320   1.00
O2       0.39150    0.50320    0.93850   1.00
O2       0.32680    0.43850    0.93850   1.00
O2       0.43850    0.39150    1.00320   1.00
O2       0.50320    0.39150    0.93850   1.00
O2       0.43850    0.32680    0.93850   1.00
O2       0.43850    0.50320    0.89150   1.00
O2       0.50320    0.43850    0.89150   1.00
O2       0.43850    0.43850    0.82680   1.00
O2       0.32680    0.39150    0.89150   1.00
O2       0.39150    0.32680    0.89150   1.00
O2       0.39150    0.39150    0.82680   1.00
C1       0.41500    0.41500    1.02020   1.00
C1       0.41500    0.52020    0.91500   1.00
C1       0.30980    0.41500    0.91500   1.00
C1       0.52020    0.41500    0.91500   1.00
C1       0.41500    0.30980    0.91500   1.00
C1       0.41500    0.41500    0.80980   1.00
O1       0.41500    0.91500    0.41500   1.00
Zn1      0.38220    0.94780    0.44780   1.00
Zn1      0.44780    0.88220    0.44780   1.00
Zn1      0.44780    0.94780    0.38220   1.00
Zn1      0.38220    0.88220    0.38220   1.00
O2       0.39150    0.93850    0.50320   1.00
O2       0.39150    1.00320    0.43850   1.00
O2       0.32680    0.93850    0.43850   1.00
O2       0.43850    0.89150    0.50320   1.00
O2       0.50320    0.89150    0.43850   1.00
O2       0.43850    0.82680    0.43850   1.00
O2       0.43850    1.00320    0.39150   1.00
O2       0.50320    0.93850    0.39150   1.00
O2       0.43850    0.93850    0.32680   1.00
O2       0.32680    0.89150    0.39150   1.00
O2       0.39150    0.82680    0.39150   1.00
O2       0.39150    0.89150    0.32680   1.00
C1       0.41500    0.91500    0.52020   1.00
C1       0.41500    1.02020    0.41500   1.00
C1       0.30980    0.91500    0.41500   1.00
C1       0.52020    0.91500    0.41500   1.00
C1       0.41500    0.80980    0.41500   1.00
C1       0.41500    0.91500    0.30980   1.00
O1       0.91500    0.41500    0.41500   1.00
Zn1      0.88220    0.44780    0.44780   1.00
Zn1      0.94780    0.38220    0.44780   1.00
Zn1      0.94780    0.44780    0.38220   1.00
Zn1      0.88220    0.38220    0.38220   1.00
O2       0.89150    0.43850    0.50320   1.00
O2       0.89150    0.50320    0.43850   1.00
O2       0.82680    0.43850    0.43850   1.00
O2       0.93850    0.39150    0.50320   1.00
O2       1.00320    0.39150    0.43850   1.00
O2       0.93850    0.32680    0.43850   1.00
O2       0.93850    0.50320    0.39150   1.00
O2       1.00320    0.43850    0.39150   1.00
O2       0.93850    0.43850    0.32680   1.00
O2       0.82680    0.39150    0.39150   1.00
O2       0.89150    0.32680    0.39150   1.00
O2       0.89150    0.39150    0.32680   1.00
C1       0.91500    0.41500    0.52020   1.00
C1       0.91500    0.52020    0.41500   1.00
C1       0.80980    0.41500    0.41500   1.00
C1       1.02020    0.41500    0.41500   1.00
C1       0.91500    0.30980    0.41500   1.00
C1       0.91500    0.41500    0.30980   1.00
O1       0.41500    0.41500    0.41500   1.00
Zn1      0.44780    0.38220    0.38220   1.00
Zn1      0.38220    0.44780    0.38220   1.00
Zn1      0.38220    0.38220    0.44780   1.00
Zn1      0.44780    0.44780    0.44780   1.00
O2       0.43850    0.39150    0.32680   1.00
O2       0.43850    0.32680    0.39150   1.00
O2       0.50320    0.39150    0.39150   1.00
O2       0.39150    0.43850    0.32680   1.00
O2       0.32680    0.43850    0.39150   1.00
O2       0.39150    0.50320    0.39150   1.00
O2       0.39150    0.32680    0.43850   1.00
O2       0.32680    0.39150    0.43850   1.00
O2       0.39150    0.39150    0.50320   1.00
O2       0.50320    0.43850    0.43850   1.00
O2       0.43850    0.50320    0.43850   1.00
O2       0.43850    0.43850    0.50320   1.00
C1       0.41500    0.41500    0.30980   1.00
C1       0.41500    0.30980    0.41500   1.00
C1       0.52020    0.41500    0.41500   1.00
C1       0.30980    0.41500    0.41500   1.00
C1       0.41500    0.52020    0.41500   1.00
C1       0.41500    0.41500    0.52020   1.00
O1       0.91500    0.91500    0.41500   1.00
Zn1      0.94780    0.88220    0.38220   1.00
Zn1      0.88220    0.94780    0.38220   1.00
Zn1      0.88220    0.88220    0.44780   1.00
Zn1      0.94780    0.94780    0.44780   1.00
O2       0.93850    0.89150    0.32680   1.00
O2       0.93850    0.82680    0.39150   1.00
O2       1.00320    0.89150    0.39150   1.00
O2       0.89150    0.93850    0.32680   1.00
O2       0.82680    0.93850    0.39150   1.00
O2       0.89150    1.00320    0.39150   1.00
O2       0.89150    0.82680    0.43850   1.00
O2       0.82680    0.89150    0.43850   1.00
O2       0.89150    0.89150    0.50320   1.00
O2       1.00320    0.93850    0.43850   1.00
O2       0.93850    1.00320    0.43850   1.00
O2       0.93850    0.93850    0.50320   1.00
C1       0.91500    0.91500    0.30980   1.00
C1       0.91500    0.80980    0.41500   1.00
C1       1.02020    0.91500    0.41500   1.00
C1       0.80980    0.91500    0.41500   1.00
C1       0.91500    1.02020    0.41500   1.00
C1       0.91500    0.91500    0.52020   1.00
O1       0.91500    0.41500    0.91500   1.00
Zn1      0.94780    0.38220    0.88220   1.00
Zn1      0.88220    0.44780    0.88220   1.00
Zn1      0.88220    0.38220    0.94780   1.00
Zn1      0.94780    0.44780    0.94780   1.00
O2       0.93850    0.39150    0.82680   1.00
O2       0.93850    0.32680    0.89150   1.00
O2       1.00320    0.39150    0.89150   1.00
O2       0.89150    0.43850    0.82680   1.00
O2       0.82680    0.43850    0.89150   1.00
O2       0.89150    0.50320    0.89150   1.00
O2       0.89150    0.32680    0.93850   1.00
O2       0.82680    0.39150    0.93850   1.00
O2       0.89150    0.39150    1.00320   1.00
O2       1.00320    0.43850    0.93850   1.00
O2       0.93850    0.50320    0.93850   1.00
O2       0.93850    0.43850    1.00320   1.00
C1       0.91500    0.41500    0.80980   1.00
C1       0.91500    0.30980    0.91500   1.00
C1       1.02020    0.41500    0.91500   1.00
C1       0.80980    0.41500    0.91500   1.00
C1       0.91500    0.52020    0.91500   1.00
C1       0.91500    0.41500    1.02020   1.00
O1       0.41500    0.91500    0.91500   1.00
Zn1      0.44780    0.88220    0.88220   1.00
Zn1      0.38220    0.94780    0.88220   1.00
Zn1      0.38220    0.88220    0.94780   1.00
Zn1      0.44780    0.94780    0.94780   1.00
O2       0.43850    0.89150    0.82680   1.00
O2       0.43850    0.82680    0.89150   1.00
O2       0.50320    0.89150    0.89150   1.00
O2       0.39150    0.93850    0.82680   1.00
O2       0.32680    0.93850    0.89150   1.00
O2       0.39150    1.00320    0.89150   1.00
O2       0.39150    0.82680    0.93850   1.00
O2       0.32680    0.89150    0.93850   1.00
O2       0.39150    0.89150    1.00320   1.00
O2       0.50320    0.93850    0.93850   1.00
O2       0.43850    1.00320    0.93850   1.00
O2       0.43850    0.93850    1.00320   1.00
C1       0.41500    0.91500    0.80980   1.00
C1       0.41500    0.80980    0.91500   1.00
C1       0.52020    0.91500    0.91500   1.00
C1       0.30980    0.91500    0.91500   1.00
C1       0.41500    1.02020    0.91500   1.00
C1       0.41500    0.91500    1.02020   1.00
C4       0.75039    0.74933    1.02067   1.00
C4       0.74961    0.75067    0.97933   1.00
C3       0.72177    0.72857    1.04244   1.00
C3       0.71733    0.73627    0.95756   1.00
C4       0.78017    0.76933    1.04150   1.00
C4       0.78183    0.76646    0.95850   1.00
C2       0.74945    0.74970    1.10352   1.00
C2       0.74946    0.74967    0.89648   1.00
C3       0.72127    0.72918    1.08310   1.00
C3       0.71760    0.73553    0.91690   1.00
C3       0.77890    0.76912    1.08306   1.00
C3       0.78101    0.76547    0.91694   1.00
H1       0.69979    0.71070    1.02888   1.00
H1       0.69086    0.72617    0.97112   1.00
C5       0.81068    0.78848    1.02065   1.00
C5       0.81366    0.78331    0.97935   1.00
H1       0.69892    0.71335    1.09886   1.00
H1       0.69272    0.72409    0.90114   1.00
H1       0.80084    0.78336    1.10053   1.00
H1       0.80431    0.77735    0.89947   1.00
C6       0.83885    0.81546    1.04234   1.00
C6       0.85112    0.79422    0.95766   1.00
H2       0.84742    0.84043    1.02358   1.00
H2       0.82473    0.83010    1.06737   1.00
C6       0.87464    0.79292    1.05724   1.00
H2       0.87702    0.78915    0.97642   1.00
H2       0.85673    0.77467    0.93263   1.00
C6       0.84949    0.83648    0.94276   1.00
H2       0.89026    0.77845    1.03274   1.00
C6       0.90271    0.82032    1.07832   1.00
H2       0.86522    0.76940    1.07760   1.00
C6       0.88726    0.84709    0.92168   1.00
H2       0.82441    0.84008    0.92240   1.00
H2       0.84476    0.85724    0.96726   1.00
H2       0.91314    0.84353    1.05822   1.00
H2       0.88817    0.83413    1.10380   1.00
H2       0.92840    0.80368    1.08898   1.00
H2       0.91257    0.84452    0.94178   1.00
H2       0.89194    0.82759    0.89620   1.00
H2       0.88569    0.87766    0.91102   1.00
C4       0.74933    1.02067    0.75039   1.00
C4       0.75067    0.97933    0.74961   1.00
C3       0.72857    1.04244    0.72177   1.00
C3       0.73627    0.95756    0.71733   1.00
C4       0.76933    1.04150    0.78017   1.00
C4       0.76646    0.95850    0.78183   1.00
C2       0.74970    1.10352    0.74945   1.00
C2       0.74967    0.89648    0.74946   1.00
C3       0.72918    1.08310    0.72127   1.00
C3       0.73553    0.91690    0.71760   1.00
C3       0.76912    1.08306    0.77890   1.00
C3       0.76547    0.91694    0.78101   1.00
H1       0.71070    1.02888    0.69979   1.00
H1       0.72617    0.97112    0.69086   1.00
C5       0.78848    1.02065    0.81068   1.00
C5       0.78331    0.97935    0.81366   1.00
H1       0.71335    1.09886    0.69892   1.00
H1       0.72409    0.90114    0.69272   1.00
H1       0.78336    1.10053    0.80084   1.00
H1       0.77735    0.89947    0.80431   1.00
C6       0.81546    1.04234    0.83885   1.00
C6       0.79422    0.95766    0.85112   1.00
H2       0.84043    1.02358    0.84742   1.00
H2       0.83010    1.06737    0.82473   1.00
C6       0.79292    1.05724    0.87464   1.00
H2       0.78915    0.97642    0.87702   1.00
H2       0.77467    0.93263    0.85673   1.00
C6       0.83648    0.94276    0.84949   1.00
H2       0.77845    1.03274    0.89026   1.00
C6       0.82032    1.07832    0.90271   1.00
H2       0.76940    1.07760    0.86522   1.00
C6       0.84709    0.92168    0.88726   1.00
H2       0.84008    0.92240    0.82441   1.00
H2       0.85724    0.96726    0.84476   1.00
H2       0.84353    1.05822    0.91314   1.00
H2       0.83413    1.10380    0.88817   1.00
H2       0.80368    1.08898    0.92840   1.00
H2       0.84452    0.94178    0.91257   1.00
H2       0.82759    0.89620    0.89194   1.00
H2       0.87766    0.91102    0.88569   1.00
C4       0.47933    0.75039    0.75067   1.00
C4       0.52067    0.74961    0.74933   1.00
C3       0.45756    0.72177    0.77143   1.00
C3       0.54244    0.71733    0.76373   1.00
C4       0.45850    0.78017    0.73067   1.00
C4       0.54150    0.78183    0.73354   1.00
C2       0.39648    0.74945    0.75030   1.00
C2       0.60352    0.74946    0.75033   1.00
C3       0.41690    0.72127    0.77082   1.00
C3       0.58310    0.71760    0.76447   1.00
C3       0.41694    0.77890    0.73088   1.00
C3       0.58306    0.78101    0.73453   1.00
H1       0.47112    0.69979    0.78930   1.00
H1       0.52888    0.69086    0.77383   1.00
C5       0.47935    0.81068    0.71152   1.00
C5       0.52065    0.81366    0.71669   1.00
H1       0.40114    0.69892    0.78665   1.00
H1       0.59886    0.69272    0.77591   1.00
H1       0.39947    0.80084    0.71664   1.00
H1       0.60053    0.80431    0.72265   1.00
C6       0.45766    0.83885    0.68454   1.00
C6       0.54234    0.85112    0.70578   1.00
H2       0.47642    0.84742    0.65957   1.00
H2       0.43263    0.82473    0.66990   1.00
C6       0.44276    0.87464    0.70708   1.00
H2       0.52358    0.87702    0.71085   1.00
H2       0.56737    0.85673    0.72533   1.00
C6       0.55724    0.84949    0.66352   1.00
H2       0.46726    0.89026    0.72155   1.00
C6       0.42168    0.90271    0.67968   1.00
H2       0.42240    0.86522    0.73060   1.00
C6       0.57832    0.88726    0.65291   1.00
H2       0.57760    0.82441    0.65992   1.00
H2       0.53274    0.84476    0.64276   1.00
H2       0.44178    0.91314    0.65647   1.00
H2       0.39620    0.88817    0.66587   1.00
H2       0.41102    0.92840    0.69632   1.00
H2       0.55822    0.91257    0.65548   1.00
H2       0.60380    0.89194    0.67241   1.00
H2       0.58898    0.88569    0.62234   1.00
C4       1.02067    0.75039    0.74933   1.00
C4       0.97933    0.74961    0.75067   1.00
C3       1.04244    0.72177    0.72857   1.00
C3       0.95756    0.71733    0.73627   1.00
C4       1.04150    0.78017    0.76933   1.00
C4       0.95850    0.78183    0.76646   1.00
C2       1.10352    0.74945    0.74970   1.00
C2       0.89648    0.74946    0.74967   1.00
C3       1.08310    0.72127    0.72918   1.00
C3       0.91690    0.71760    0.73553   1.00
C3       1.08306    0.77890    0.76912   1.00
C3       0.91694    0.78101    0.76547   1.00
H1       1.02888    0.69979    0.71070   1.00
H1       0.97112    0.69086    0.72617   1.00
C5       1.02065    0.81068    0.78848   1.00
C5       0.97935    0.81366    0.78331   1.00
H1       1.09886    0.69892    0.71335   1.00
H1       0.90114    0.69272    0.72409   1.00
H1       1.10053    0.80084    0.78336   1.00
H1       0.89947    0.80431    0.77735   1.00
C6       1.04234    0.83885    0.81546   1.00
C6       0.95766    0.85112    0.79422   1.00
H2       1.02358    0.84742    0.84043   1.00
H2       1.06737    0.82473    0.83010   1.00
C6       1.05724    0.87464    0.79292   1.00
H2       0.97642    0.87702    0.78915   1.00
H2       0.93263    0.85673    0.77467   1.00
C6       0.94276    0.84949    0.83648   1.00
H2       1.03274    0.89026    0.77845   1.00
C6       1.07832    0.90271    0.82032   1.00
H2       1.07760    0.86522    0.76940   1.00
C6       0.92168    0.88726    0.84709   1.00
H2       0.92240    0.82441    0.84008   1.00
H2       0.96726    0.84476    0.85724   1.00
H2       1.05822    0.91314    0.84353   1.00
H2       1.10380    0.88817    0.83413   1.00
H2       1.08898    0.92840    0.80368   1.00
H2       0.94178    0.91257    0.84452   1.00
H2       0.89620    0.89194    0.82759   1.00
H2       0.91102    0.88569    0.87766   1.00
C4       0.75067    0.47933    0.75039   1.00
C4       0.74933    0.52067    0.74961   1.00
C3       0.77143    0.45756    0.72177   1.00
C3       0.76373    0.54244    0.71733   1.00
C4       0.73067    0.45850    0.78017   1.00
C4       0.73354    0.54150    0.78183   1.00
C2       0.75030    0.39648    0.74945   1.00
C2       0.75033    0.60352    0.74946   1.00
C3       0.77082    0.41690    0.72127   1.00
C3       0.76447    0.58310    0.71760   1.00
C3       0.73088    0.41694    0.77890   1.00
C3       0.73453    0.58306    0.78101   1.00
H1       0.78930    0.47112    0.69979   1.00
H1       0.77383    0.52888    0.69086   1.00
C5       0.71152    0.47935    0.81068   1.00
C5       0.71669    0.52065    0.81366   1.00
H1       0.78665    0.40114    0.69892   1.00
H1       0.77591    0.59886    0.69272   1.00
H1       0.71664    0.39947    0.80084   1.00
H1       0.72265    0.60053    0.80431   1.00
C6       0.68454    0.45766    0.83885   1.00
C6       0.70578    0.54234    0.85112   1.00
H2       0.65957    0.47642    0.84742   1.00
H2       0.66990    0.43263    0.82473   1.00
C6       0.70708    0.44276    0.87464   1.00
H2       0.71085    0.52358    0.87702   1.00
H2       0.72533    0.56737    0.85673   1.00
C6       0.66352    0.55724    0.84949   1.00
H2       0.72155    0.46726    0.89026   1.00
C6       0.67968    0.42168    0.90271   1.00
H2       0.73060    0.42240    0.86522   1.00
C6       0.65291    0.57832    0.88726   1.00
H2       0.65992    0.57760    0.82441   1.00
H2       0.64276    0.53274    0.84476   1.00
H2       0.65647    0.44178    0.91314   1.00
H2       0.66587    0.39620    0.88817   1.00
H2       0.69632    0.41102    0.92840   1.00
H2       0.65548    0.55822    0.91257   1.00
H2       0.67241    0.60380    0.89194   1.00
H2       0.62234    0.58898    0.88569   1.00
C4       0.75039    0.75067    0.47933   1.00
C4       0.74961    0.74933    0.52067   1.00
C3       0.72177    0.77143    0.45756   1.00
C3       0.71733    0.76373    0.54244   1.00
C4       0.78017    0.73067    0.45850   1.00
C4       0.78183    0.73354    0.54150   1.00
C2       0.74945    0.75030    0.39648   1.00
C2       0.74946    0.75033    0.60352   1.00
C3       0.72127    0.77082    0.41690   1.00
C3       0.71760    0.76447    0.58310   1.00
C3       0.77890    0.73088    0.41694   1.00
C3       0.78101    0.73453    0.58306   1.00
H1       0.69979    0.78930    0.47112   1.00
H1       0.69086    0.77383    0.52888   1.00
C5       0.81068    0.71152    0.47935   1.00
C5       0.81366    0.71669    0.52065   1.00
H1       0.69892    0.78665    0.40114   1.00
H1       0.69272    0.77591    0.59886   1.00
H1       0.80084    0.71664    0.39947   1.00
H1       0.80431    0.72265    0.60053   1.00
C6       0.83885    0.68454    0.45766   1.00
C6       0.85112    0.70578    0.54234   1.00
H2       0.84742    0.65957    0.47642   1.00
H2       0.82473    0.66990    0.43263   1.00
C6       0.87464    0.70708    0.44276   1.00
H2       0.87702    0.71085    0.52358   1.00
H2       0.85673    0.72533    0.56737   1.00
C6       0.84949    0.66352    0.55724   1.00
H2       0.89026    0.72155    0.46726   1.00
C6       0.90271    0.67968    0.42168   1.00
H2       0.86522    0.73060    0.42240   1.00
C6       0.88726    0.65291    0.57832   1.00
H2       0.82441    0.65992    0.57760   1.00
H2       0.84476    0.64276    0.53274   1.00
H2       0.91314    0.65647    0.44178   1.00
H2       0.88817    0.66587    0.39620   1.00
H2       0.92840    0.69632    0.41102   1.00
H2       0.91257    0.65548    0.55822   1.00
H2       0.89194    0.67241    0.60380   1.00
H2       0.88569    0.62234    0.58898   1.00
C4       0.25039    0.24933    1.02067   1.00
C4       0.24961    0.25067    0.97933   1.00
C3       0.22177    0.22857    1.04244   1.00
C3       0.21733    0.23627    0.95756   1.00
C4       0.28017    0.26933    1.04150   1.00
C4       0.28183    0.26646    0.95850   1.00
C2       0.24945    0.24970    1.10352   1.00
C2       0.24946    0.24967    0.89648   1.00
C3       0.22127    0.22918    1.08310   1.00
C3       0.21760    0.23553    0.91690   1.00
C3       0.27890    0.26912    1.08306   1.00
C3       0.28101    0.26547    0.91694   1.00
H1       0.19979    0.21070    1.02888   1.00
H1       0.19086    0.22617    0.97112   1.00
C5       0.31068    0.28848    1.02065   1.00
C5       0.31366    0.28331    0.97935   1.00
H1       0.19892    0.21335    1.09886   1.00
H1       0.19272    0.22409    0.90114   1.00
H1       0.30084    0.28336    1.10053   1.00
H1       0.30431    0.27735    0.89947   1.00
C6       0.33885    0.31546    1.04234   1.00
C6       0.35112    0.29422    0.95766   1.00
H2       0.34742    0.34043    1.02358   1.00
H2       0.32473    0.33010    1.06737   1.00
C6       0.37464    0.29292    1.05724   1.00
H2       0.37702    0.28915    0.97642   1.00
H2       0.35673    0.27467    0.93263   1.00
C6       0.34949    0.33648    0.94276   1.00
H2       0.39026    0.27845    1.03274   1.00
C6       0.40271    0.32032    1.07832   1.00
H2       0.36522    0.26940    1.07760   1.00
C6       0.38726    0.34709    0.92168   1.00
H2       0.32441    0.34008    0.92240   1.00
H2       0.34476    0.35724    0.96726   1.00
H2       0.41314    0.34353    1.05822   1.00
H2       0.38817    0.33413    1.10380   1.00
H2       0.42840    0.30368    1.08898   1.00
H2       0.41257    0.34452    0.94178   1.00
H2       0.39194    0.32759    0.89620   1.00
H2       0.38569    0.37766    0.91102   1.00
C4       0.24933    0.52067    0.75039   1.00
C4       0.25067    0.47933    0.74961   1.00
C3       0.22857    0.54244    0.72177   1.00
C3       0.23627    0.45756    0.71733   1.00
C4       0.26933    0.54150    0.78017   1.00
C4       0.26646    0.45850    0.78183   1.00
C2       0.24970    0.60352    0.74945   1.00
C2       0.24967    0.39648    0.74946   1.00
C3       0.22918    0.58310    0.72127   1.00
C3       0.23553    0.41690    0.71760   1.00
C3       0.26912    0.58306    0.77890   1.00
C3       0.26547    0.41694    0.78101   1.00
H1       0.21070    0.52888    0.69979   1.00
H1       0.22617    0.47112    0.69086   1.00
C5       0.28848    0.52065    0.81068   1.00
C5       0.28331    0.47935    0.81366   1.00
H1       0.21335    0.59886    0.69892   1.00
H1       0.22409    0.40114    0.69272   1.00
H1       0.28336    0.60053    0.80084   1.00
H1       0.27735    0.39947    0.80431   1.00
C6       0.31546    0.54234    0.83885   1.00
C6       0.29422    0.45766    0.85112   1.00
H2       0.34043    0.52358    0.84742   1.00
H2       0.33010    0.56737    0.82473   1.00
C6       0.29292    0.55724    0.87464   1.00
H2       0.28915    0.47642    0.87702   1.00
H2       0.27467    0.43263    0.85673   1.00
C6       0.33648    0.44276    0.84949   1.00
H2       0.27845    0.53274    0.89026   1.00
C6       0.32032    0.57832    0.90271   1.00
H2       0.26940    0.57760    0.86522   1.00
C6       0.34709    0.42168    0.88726   1.00
H2       0.34008    0.42240    0.82441   1.00
H2       0.35724    0.46726    0.84476   1.00
H2       0.34353    0.55822    0.91314   1.00
H2       0.33413    0.60380    0.88817   1.00
H2       0.30368    0.58898    0.92840   1.00
H2       0.34452    0.44178    0.91257   1.00
H2       0.32759    0.39620    0.89194   1.00
H2       0.37766    0.41102    0.88569   1.00
C4       -0.02067   0.25039    0.75067   1.00
C4       0.02067    0.24961    0.74933   1.00
C3       -0.04244   0.22177    0.77143   1.00
C3       0.04244    0.21733    0.76373   1.00
C4       -0.04150   0.28017    0.73067   1.00
C4       0.04150    0.28183    0.73354   1.00
C2       -0.10352   0.24945    0.75030   1.00
C2       0.10352    0.24946    0.75033   1.00
C3       -0.08310   0.22127    0.77082   1.00
C3       0.08310    0.21760    0.76447   1.00
C3       -0.08306   0.27890    0.73088   1.00
C3       0.08306    0.28101    0.73453   1.00
H1       -0.02888   0.19979    0.78930   1.00
H1       0.02888    0.19086    0.77383   1.00
C5       -0.02065   0.31068    0.71152   1.00
C5       0.02065    0.31366    0.71669   1.00
H1       -0.09886   0.19892    0.78665   1.00
H1       0.09886    0.19272    0.77591   1.00
H1       -0.10053   0.30084    0.71664   1.00
H1       0.10053    0.30431    0.72265   1.00
C6       -0.04234   0.33885    0.68454   1.00
C6       0.04234    0.35112    0.70578   1.00
H2       -0.02358   0.34742    0.65957   1.00
H2       -0.06737   0.32473    0.66990   1.00
C6       -0.05724   0.37464    0.70708   1.00
H2       0.02358    0.37702    0.71085   1.00
H2       0.06737    0.35673    0.72533   1.00
C6       0.05724    0.34949    0.66352   1.00
H2       -0.03274   0.39026    0.72155   1.00
C6       -0.07832   0.40271    0.67968   1.00
H2       -0.07760   0.36522    0.73060   1.00
C6       0.07832    0.38726    0.65291   1.00
H2       0.07760    0.32441    0.65992   1.00
H2       0.03274    0.34476    0.64276   1.00
H2       -0.05822   0.41314    0.65647   1.00
H2       -0.10380   0.38817    0.66587   1.00
H2       -0.08898   0.42840    0.69632   1.00
H2       0.05822    0.41257    0.65548   1.00
H2       0.10380    0.39194    0.67241   1.00
H2       0.08898    0.38569    0.62234   1.00
C4       0.52067    0.25039    0.74933   1.00
C4       0.47933    0.24961    0.75067   1.00
C3       0.54244    0.22177    0.72857   1.00
C3       0.45756    0.21733    0.73627   1.00
C4       0.54150    0.28017    0.76933   1.00
C4       0.45850    0.28183    0.76646   1.00
C2       0.60352    0.24945    0.74970   1.00
C2       0.39648    0.24946    0.74967   1.00
C3       0.58310    0.22127    0.72918   1.00
C3       0.41690    0.21760    0.73553   1.00
C3       0.58306    0.27890    0.76912   1.00
C3       0.41694    0.28101    0.76547   1.00
H1       0.52888    0.19979    0.71070   1.00
H1       0.47112    0.19086    0.72617   1.00
C5       0.52065    0.31068    0.78848   1.00
C5       0.47935    0.31366    0.78331   1.00
H1       0.59886    0.19892    0.71335   1.00
H1       0.40114    0.19272    0.72409   1.00
H1       0.60053    0.30084    0.78336   1.00
H1       0.39947    0.30431    0.77735   1.00
C6       0.54234    0.33885    0.81546   1.00
C6       0.45766    0.35112    0.79422   1.00
H2       0.52358    0.34742    0.84043   1.00
H2       0.56737    0.32473    0.83010   1.00
C6       0.55724    0.37464    0.79292   1.00
H2       0.47642    0.37702    0.78915   1.00
H2       0.43263    0.35673    0.77467   1.00
C6       0.44276    0.34949    0.83648   1.00
H2       0.53274    0.39026    0.77845   1.00
C6       0.57832    0.40271    0.82032   1.00
H2       0.57760    0.36522    0.76940   1.00
C6       0.42168    0.38726    0.84709   1.00
H2       0.42240    0.32441    0.84008   1.00
H2       0.46726    0.34476    0.85724   1.00
H2       0.55822    0.41314    0.84353   1.00
H2       0.60380    0.38817    0.83413   1.00
H2       0.58898    0.42840    0.80368   1.00
H2       0.44178    0.41257    0.84452   1.00
H2       0.39620    0.39194    0.82759   1.00
H2       0.41102    0.38569    0.87766   1.00
C4       0.25067    -0.02067   0.75039   1.00
C4       0.24933    0.02067    0.74961   1.00
C3       0.27143    -0.04244   0.72177   1.00
C3       0.26373    0.04244    0.71733   1.00
C4       0.23067    -0.04150   0.78017   1.00
C4       0.23354    0.04150    0.78183   1.00
C2       0.25030    -0.10352   0.74945   1.00
C2       0.25033    0.10352    0.74946   1.00
C3       0.27082    -0.08310   0.72127   1.00
C3       0.26447    0.08310    0.71760   1.00
C3       0.23088    -0.08306   0.77890   1.00
C3       0.23453    0.08306    0.78101   1.00
H1       0.28930    -0.02888   0.69979   1.00
H1       0.27383    0.02888    0.69086   1.00
C5       0.21152    -0.02065   0.81068   1.00
C5       0.21669    0.02065    0.81366   1.00
H1       0.28665    -0.09886   0.69892   1.00
H1       0.27591    0.09886    0.69272   1.00
H1       0.21664    -0.10053   0.80084   1.00
H1       0.22265    0.10053    0.80431   1.00
C6       0.18454    -0.04234   0.83885   1.00
C6       0.20578    0.04234    0.85112   1.00
H2       0.15957    -0.02358   0.84742   1.00
H2       0.16990    -0.06737   0.82473   1.00
C6       0.20708    -0.05724   0.87464   1.00
H2       0.21085    0.02358    0.87702   1.00
H2       0.22533    0.06737    0.85673   1.00
C6       0.16352    0.05724    0.84949   1.00
H2       0.22155    -0.03274   0.89026   1.00
C6       0.17968    -0.07832   0.90271   1.00
H2       0.23060    -0.07760   0.86522   1.00
C6       0.15291    0.07832    0.88726   1.00
H2       0.15992    0.07760    0.82441   1.00
H2       0.14276    0.03274    0.84476   1.00
H2       0.15647    -0.05822   0.91314   1.00
H2       0.16587    -0.10380   0.88817   1.00
H2       0.19632    -0.08898   0.92840   1.00
H2       0.15548    0.05822    0.91257   1.00
H2       0.17241    0.10380    0.89194   1.00
H2       0.12234    0.08898    0.88569   1.00
C4       0.25039    0.25067    0.47933   1.00
C4       0.24961    0.24933    0.52067   1.00
C3       0.22177    0.27143    0.45756   1.00
C3       0.21733    0.26373    0.54244   1.00
C4       0.28017    0.23067    0.45850   1.00
C4       0.28183    0.23354    0.54150   1.00
C2       0.24945    0.25030    0.39648   1.00
C2       0.24946    0.25033    0.60352   1.00
C3       0.22127    0.27082    0.41690   1.00
C3       0.21760    0.26447    0.58310   1.00
C3       0.27890    0.23088    0.41694   1.00
C3       0.28101    0.23453    0.58306   1.00
H1       0.19979    0.28930    0.47112   1.00
H1       0.19086    0.27383    0.52888   1.00
C5       0.31068    0.21152    0.47935   1.00
C5       0.31366    0.21669    0.52065   1.00
H1       0.19892    0.28665    0.40114   1.00
H1       0.19272    0.27591    0.59886   1.00
H1       0.30084    0.21664    0.39947   1.00
H1       0.30431    0.22265    0.60053   1.00
C6       0.33885    0.18454    0.45766   1.00
C6       0.35112    0.20578    0.54234   1.00
H2       0.34742    0.15957    0.47642   1.00
H2       0.32473    0.16990    0.43263   1.00
C6       0.37464    0.20708    0.44276   1.00
H2       0.37702    0.21085    0.52358   1.00
H2       0.35673    0.22533    0.56737   1.00
C6       0.34949    0.16352    0.55724   1.00
H2       0.39026    0.22155    0.46726   1.00
C6       0.40271    0.17968    0.42168   1.00
H2       0.36522    0.23060    0.42240   1.00
C6       0.38726    0.15291    0.57832   1.00
H2       0.32441    0.15992    0.57760   1.00
H2       0.34476    0.14276    0.53274   1.00
H2       0.41314    0.15647    0.44178   1.00
H2       0.38817    0.16587    0.39620   1.00
H2       0.42840    0.19632    0.41102   1.00
H2       0.41257    0.15548    0.55822   1.00
H2       0.39194    0.17241    0.60380   1.00
H2       0.38569    0.12234    0.58898   1.00
C4       0.25039    0.74933    0.52067   1.00
C4       0.24961    0.75067    0.47933   1.00
C3       0.22177    0.72857    0.54244   1.00
C3       0.21733    0.73627    0.45756   1.00
C4       0.28017    0.76933    0.54150   1.00
C4       0.28183    0.76646    0.45850   1.00
C2       0.24945    0.74970    0.60352   1.00
C2       0.24946    0.74967    0.39648   1.00
C3       0.22127    0.72918    0.58310   1.00
C3       0.21760    0.73553    0.41690   1.00
C3       0.27890    0.76912    0.58306   1.00
C3       0.28101    0.76547    0.41694   1.00
H1       0.19979    0.71070    0.52888   1.00
H1       0.19086    0.72617    0.47112   1.00
C5       0.31068    0.78848    0.52065   1.00
C5       0.31366    0.78331    0.47935   1.00
H1       0.19892    0.71335    0.59886   1.00
H1       0.19272    0.72409    0.40114   1.00
H1       0.30084    0.78336    0.60053   1.00
H1       0.30431    0.77735    0.39947   1.00
C6       0.33885    0.81546    0.54234   1.00
C6       0.35112    0.79422    0.45766   1.00
H2       0.34742    0.84043    0.52358   1.00
H2       0.32473    0.83010    0.56737   1.00
C6       0.37464    0.79292    0.55724   1.00
H2       0.37702    0.78915    0.47642   1.00
H2       0.35673    0.77467    0.43263   1.00
C6       0.34949    0.83648    0.44276   1.00
H2       0.39026    0.77845    0.53274   1.00
C6       0.40271    0.82032    0.57832   1.00
H2       0.36522    0.76940    0.57760   1.00
C6       0.38726    0.84709    0.42168   1.00
H2       0.32441    0.84008    0.42240   1.00
H2       0.34476    0.85724    0.46726   1.00
H2       0.41314    0.84353    0.55822   1.00
H2       0.38817    0.83413    0.60380   1.00
H2       0.42840    0.80368    0.58898   1.00
H2       0.41257    0.84452    0.44178   1.00
H2       0.39194    0.82759    0.39620   1.00
H2       0.38569    0.87766    0.41102   1.00
C4       0.24933    1.02067    0.25039   1.00
C4       0.25067    0.97933    0.24961   1.00
C3       0.22857    1.04244    0.22177   1.00
C3       0.23627    0.95756    0.21733   1.00
C4       0.26933    1.04150    0.28017   1.00
C4       0.26646    0.95850    0.28183   1.00
C2       0.24970    1.10352    0.24945   1.00
C2       0.24967    0.89648    0.24946   1.00
C3       0.22918    1.08310    0.22127   1.00
C3       0.23553    0.91690    0.21760   1.00
C3       0.26912    1.08306    0.27890   1.00
C3       0.26547    0.91694    0.28101   1.00
H1       0.21070    1.02888    0.19979   1.00
H1       0.22617    0.97112    0.19086   1.00
C5       0.28848    1.02065    0.31068   1.00
C5       0.28331    0.97935    0.31366   1.00
H1       0.21335    1.09886    0.19892   1.00
H1       0.22409    0.90114    0.19272   1.00
H1       0.28336    1.10053    0.30084   1.00
H1       0.27735    0.89947    0.30431   1.00
C6       0.31546    1.04234    0.33885   1.00
C6       0.29422    0.95766    0.35112   1.00
H2       0.34043    1.02358    0.34742   1.00
H2       0.33010    1.06737    0.32473   1.00
C6       0.29292    1.05724    0.37464   1.00
H2       0.28915    0.97642    0.37702   1.00
H2       0.27467    0.93263    0.35673   1.00
C6       0.33648    0.94276    0.34949   1.00
H2       0.27845    1.03274    0.39026   1.00
C6       0.32032    1.07832    0.40271   1.00
H2       0.26940    1.07760    0.36522   1.00
C6       0.34709    0.92168    0.38726   1.00
H2       0.34008    0.92240    0.32441   1.00
H2       0.35724    0.96726    0.34476   1.00
H2       0.34353    1.05822    0.41314   1.00
H2       0.33413    1.10380    0.38817   1.00
H2       0.30368    1.08898    0.42840   1.00
H2       0.34452    0.94178    0.41257   1.00
H2       0.32759    0.89620    0.39194   1.00
H2       0.37766    0.91102    0.38569   1.00
C4       -0.02067   0.75039    0.25067   1.00
C4       0.02067    0.74961    0.24933   1.00
C3       -0.04244   0.72177    0.27143   1.00
C3       0.04244    0.71733    0.26373   1.00
C4       -0.04150   0.78017    0.23067   1.00
C4       0.04150    0.78183    0.23354   1.00
C2       -0.10352   0.74945    0.25030   1.00
C2       0.10352    0.74946    0.25033   1.00
C3       -0.08310   0.72127    0.27082   1.00
C3       0.08310    0.71760    0.26447   1.00
C3       -0.08306   0.77890    0.23088   1.00
C3       0.08306    0.78101    0.23453   1.00
H1       -0.02888   0.69979    0.28930   1.00
H1       0.02888    0.69086    0.27383   1.00
C5       -0.02065   0.81068    0.21152   1.00
C5       0.02065    0.81366    0.21669   1.00
H1       -0.09886   0.69892    0.28665   1.00
H1       0.09886    0.69272    0.27591   1.00
H1       -0.10053   0.80084    0.21664   1.00
H1       0.10053    0.80431    0.22265   1.00
C6       -0.04234   0.83885    0.18454   1.00
C6       0.04234    0.85112    0.20578   1.00
H2       -0.02358   0.84742    0.15957   1.00
H2       -0.06737   0.82473    0.16990   1.00
C6       -0.05724   0.87464    0.20708   1.00
H2       0.02358    0.87702    0.21085   1.00
H2       0.06737    0.85673    0.22533   1.00
C6       0.05724    0.84949    0.16352   1.00
H2       -0.03274   0.89026    0.22155   1.00
C6       -0.07832   0.90271    0.17968   1.00
H2       -0.07760   0.86522    0.23060   1.00
C6       0.07832    0.88726    0.15291   1.00
H2       0.07760    0.82441    0.15992   1.00
H2       0.03274    0.84476    0.14276   1.00
H2       -0.05822   0.91314    0.15647   1.00
H2       -0.10380   0.88817    0.16587   1.00
H2       -0.08898   0.92840    0.19632   1.00
H2       0.05822    0.91257    0.15548   1.00
H2       0.10380    0.89194    0.17241   1.00
H2       0.08898    0.88569    0.12234   1.00
C4       0.52067    0.75039    0.24933   1.00
C4       0.47933    0.74961    0.25067   1.00
C3       0.54244    0.72177    0.22857   1.00
C3       0.45756    0.71733    0.23627   1.00
C4       0.54150    0.78017    0.26933   1.00
C4       0.45850    0.78183    0.26646   1.00
C2       0.60352    0.74945    0.24970   1.00
C2       0.39648    0.74946    0.24967   1.00
C3       0.58310    0.72127    0.22918   1.00
C3       0.41690    0.71760    0.23553   1.00
C3       0.58306    0.77890    0.26912   1.00
C3       0.41694    0.78101    0.26547   1.00
H1       0.52888    0.69979    0.21070   1.00
H1       0.47112    0.69086    0.22617   1.00
C5       0.52065    0.81068    0.28848   1.00
C5       0.47935    0.81366    0.28331   1.00
H1       0.59886    0.69892    0.21335   1.00
H1       0.40114    0.69272    0.22409   1.00
H1       0.60053    0.80084    0.28336   1.00
H1       0.39947    0.80431    0.27735   1.00
C6       0.54234    0.83885    0.31546   1.00
C6       0.45766    0.85112    0.29422   1.00
H2       0.52358    0.84742    0.34043   1.00
H2       0.56737    0.82473    0.33010   1.00
C6       0.55724    0.87464    0.29292   1.00
H2       0.47642    0.87702    0.28915   1.00
H2       0.43263    0.85673    0.27467   1.00
C6       0.44276    0.84949    0.33648   1.00
H2       0.53274    0.89026    0.27845   1.00
C6       0.57832    0.90271    0.32032   1.00
H2       0.57760    0.86522    0.26940   1.00
C6       0.42168    0.88726    0.34709   1.00
H2       0.42240    0.82441    0.34008   1.00
H2       0.46726    0.84476    0.35724   1.00
H2       0.55822    0.91314    0.34353   1.00
H2       0.60380    0.88817    0.33413   1.00
H2       0.58898    0.92840    0.30368   1.00
H2       0.44178    0.91257    0.34452   1.00
H2       0.39620    0.89194    0.32759   1.00
H2       0.41102    0.88569    0.37766   1.00
C4       0.25067    0.47933    0.25039   1.00
C4       0.24933    0.52067    0.24961   1.00
C3       0.27143    0.45756    0.22177   1.00
C3       0.26373    0.54244    0.21733   1.00
C4       0.23067    0.45850    0.28017   1.00
C4       0.23354    0.54150    0.28183   1.00
C2       0.25030    0.39648    0.24945   1.00
C2       0.25033    0.60352    0.24946   1.00
C3       0.27082    0.41690    0.22127   1.00
C3       0.26447    0.58310    0.21760   1.00
C3       0.23088    0.41694    0.27890   1.00
C3       0.23453    0.58306    0.28101   1.00
H1       0.28930    0.47112    0.19979   1.00
H1       0.27383    0.52888    0.19086   1.00
C5       0.21152    0.47935    0.31068   1.00
C5       0.21669    0.52065    0.31366   1.00
H1       0.28665    0.40114    0.19892   1.00
H1       0.27591    0.59886    0.19272   1.00
H1       0.21664    0.39947    0.30084   1.00
H1       0.22265    0.60053    0.30431   1.00
C6       0.18454    0.45766    0.33885   1.00
C6       0.20578    0.54234    0.35112   1.00
H2       0.15957    0.47642    0.34742   1.00
H2       0.16990    0.43263    0.32473   1.00
C6       0.20708    0.44276    0.37464   1.00
H2       0.21085    0.52358    0.37702   1.00
H2       0.22533    0.56737    0.35673   1.00
C6       0.16352    0.55724    0.34949   1.00
H2       0.22155    0.46726    0.39026   1.00
C6       0.17968    0.42168    0.40271   1.00
H2       0.23060    0.42240    0.36522   1.00
C6       0.15291    0.57832    0.38726   1.00
H2       0.15992    0.57760    0.32441   1.00
H2       0.14276    0.53274    0.34476   1.00
H2       0.15647    0.44178    0.41314   1.00
H2       0.16587    0.39620    0.38817   1.00
H2       0.19632    0.41102    0.42840   1.00
H2       0.15548    0.55822    0.41257   1.00
H2       0.17241    0.60380    0.39194   1.00
H2       0.12234    0.58898    0.38569   1.00
C4       0.25039    0.75067    -0.02067   1.00
C4       0.24961    0.74933    0.02067   1.00
C3       0.22177    0.77143    -0.04244   1.00
C3       0.21733    0.76373    0.04244   1.00
C4       0.28017    0.73067    -0.04150   1.00
C4       0.28183    0.73354    0.04150   1.00
C2       0.24945    0.75030    -0.10352   1.00
C2       0.24946    0.75033    0.10352   1.00
C3       0.22127    0.77082    -0.08310   1.00
C3       0.21760    0.76447    0.08310   1.00
C3       0.27890    0.73088    -0.08306   1.00
C3       0.28101    0.73453    0.08306   1.00
H1       0.19979    0.78930    -0.02888   1.00
H1       0.19086    0.77383    0.02888   1.00
C5       0.31068    0.71152    -0.02065   1.00
C5       0.31366    0.71669    0.02065   1.00
H1       0.19892    0.78665    -0.09886   1.00
H1       0.19272    0.77591    0.09886   1.00
H1       0.30084    0.71664    -0.10053   1.00
H1       0.30431    0.72265    0.10053   1.00
C6       0.33885    0.68454    -0.04234   1.00
C6       0.35112    0.70578    0.04234   1.00
H2       0.34742    0.65957    -0.02358   1.00
H2       0.32473    0.66990    -0.06737   1.00
C6       0.37464    0.70708    -0.05724   1.00
H2       0.37702    0.71085    0.02358   1.00
H2       0.35673    0.72533    0.06737   1.00
C6       0.34949    0.66352    0.05724   1.00
H2       0.39026    0.72155    -0.03274   1.00
C6       0.40271    0.67968    -0.07832   1.00
H2       0.36522    0.73060    -0.07760   1.00
C6       0.38726    0.65291    0.07832   1.00
H2       0.32441    0.65992    0.07760   1.00
H2       0.34476    0.64276    0.03274   1.00
H2       0.41314    0.65647    -0.05822   1.00
H2       0.38817    0.66587    -0.10380   1.00
H2       0.42840    0.69632    -0.08898   1.00
H2       0.41257    0.65548    0.05822   1.00
H2       0.39194    0.67241    0.10380   1.00
H2       0.38569    0.62234    0.08898   1.00
C4       0.75039    0.24933    0.52067   1.00
C4       0.74961    0.25067    0.47933   1.00
C3       0.72177    0.22857    0.54244   1.00
C3       0.71733    0.23627    0.45756   1.00
C4       0.78017    0.26933    0.54150   1.00
C4       0.78183    0.26646    0.45850   1.00
C2       0.74945    0.24970    0.60352   1.00
C2       0.74946    0.24967    0.39648   1.00
C3       0.72127    0.22918    0.58310   1.00
C3       0.71760    0.23553    0.41690   1.00
C3       0.77890    0.26912    0.58306   1.00
C3       0.78101    0.26547    0.41694   1.00
H1       0.69979    0.21070    0.52888   1.00
H1       0.69086    0.22617    0.47112   1.00
C5       0.81068    0.28848    0.52065   1.00
C5       0.81366    0.28331    0.47935   1.00
H1       0.69892    0.21335    0.59886   1.00
H1       0.69272    0.22409    0.40114   1.00
H1       0.80084    0.28336    0.60053   1.00
H1       0.80431    0.27735    0.39947   1.00
C6       0.83885    0.31546    0.54234   1.00
C6       0.85112    0.29422    0.45766   1.00
H2       0.84742    0.34043    0.52358   1.00
H2       0.82473    0.33010    0.56737   1.00
C6       0.87464    0.29292    0.55724   1.00
H2       0.87702    0.28915    0.47642   1.00
H2       0.85673    0.27467    0.43263   1.00
C6       0.84949    0.33648    0.44276   1.00
H2       0.89026    0.27845    0.53274   1.00
C6       0.90271    0.32032    0.57832   1.00
H2       0.86522    0.26940    0.57760   1.00
C6       0.88726    0.34709    0.42168   1.00
H2       0.82441    0.34008    0.42240   1.00
H2       0.84476    0.35724    0.46726   1.00
H2       0.91314    0.34353    0.55822   1.00
H2       0.88817    0.33413    0.60380   1.00
H2       0.92840    0.30368    0.58898   1.00
H2       0.91257    0.34452    0.44178   1.00
H2       0.89194    0.32759    0.39620   1.00
H2       0.88569    0.37766    0.41102   1.00
C4       0.74933    0.52067    0.25039   1.00
C4       0.75067    0.47933    0.24961   1.00
C3       0.72857    0.54244    0.22177   1.00
C3       0.73627    0.45756    0.21733   1.00
C4       0.76933    0.54150    0.28017   1.00
C4       0.76646    0.45850    0.28183   1.00
C2       0.74970    0.60352    0.24945   1.00
C2       0.74967    0.39648    0.24946   1.00
C3       0.72918    0.58310    0.22127   1.00
C3       0.73553    0.41690    0.21760   1.00
C3       0.76912    0.58306    0.27890   1.00
C3       0.76547    0.41694    0.28101   1.00
H1       0.71070    0.52888    0.19979   1.00
H1       0.72617    0.47112    0.19086   1.00
C5       0.78848    0.52065    0.31068   1.00
C5       0.78331    0.47935    0.31366   1.00
H1       0.71335    0.59886    0.19892   1.00
H1       0.72409    0.40114    0.19272   1.00
H1       0.78336    0.60053    0.30084   1.00
H1       0.77735    0.39947    0.30431   1.00
C6       0.81546    0.54234    0.33885   1.00
C6       0.79422    0.45766    0.35112   1.00
H2       0.84043    0.52358    0.34742   1.00
H2       0.83010    0.56737    0.32473   1.00
C6       0.79292    0.55724    0.37464   1.00
H2       0.78915    0.47642    0.37702   1.00
H2       0.77467    0.43263    0.35673   1.00
C6       0.83648    0.44276    0.34949   1.00
H2       0.77845    0.53274    0.39026   1.00
C6       0.82032    0.57832    0.40271   1.00
H2       0.76940    0.57760    0.36522   1.00
C6       0.84709    0.42168    0.38726   1.00
H2       0.84008    0.42240    0.32441   1.00
H2       0.85724    0.46726    0.34476   1.00
H2       0.84353    0.55822    0.41314   1.00
H2       0.83413    0.60380    0.38817   1.00
H2       0.80368    0.58898    0.42840   1.00
H2       0.84452    0.44178    0.41257   1.00
H2       0.82759    0.39620    0.39194   1.00
H2       0.87766    0.41102    0.38569   1.00
C4       0.47933    0.25039    0.25067   1.00
C4       0.52067    0.24961    0.24933   1.00
C3       0.45756    0.22177    0.27143   1.00
C3       0.54244    0.21733    0.26373   1.00
C4       0.45850    0.28017    0.23067   1.00
C4       0.54150    0.28183    0.23354   1.00
C2       0.39648    0.24945    0.25030   1.00
C2       0.60352    0.24946    0.25033   1.00
C3       0.41690    0.22127    0.27082   1.00
C3       0.58310    0.21760    0.26447   1.00
C3       0.41694    0.27890    0.23088   1.00
C3       0.58306    0.28101    0.23453   1.00
H1       0.47112    0.19979    0.28930   1.00
H1       0.52888    0.19086    0.27383   1.00
C5       0.47935    0.31068    0.21152   1.00
C5       0.52065    0.31366    0.21669   1.00
H1       0.40114    0.19892    0.28665   1.00
H1       0.59886    0.19272    0.27591   1.00
H1       0.39947    0.30084    0.21664   1.00
H1       0.60053    0.30431    0.22265   1.00
C6       0.45766    0.33885    0.18454   1.00
C6       0.54234    0.35112    0.20578   1.00
H2       0.47642    0.34742    0.15957   1.00
H2       0.43263    0.32473    0.16990   1.00
C6       0.44276    0.37464    0.20708   1.00
H2       0.52358    0.37702    0.21085   1.00
H2       0.56737    0.35673    0.22533   1.00
C6       0.55724    0.34949    0.16352   1.00
H2       0.46726    0.39026    0.22155   1.00
C6       0.42168    0.40271    0.17968   1.00
H2       0.42240    0.36522    0.23060   1.00
C6       0.57832    0.38726    0.15291   1.00
H2       0.57760    0.32441    0.15992   1.00
H2       0.53274    0.34476    0.14276   1.00
H2       0.44178    0.41314    0.15647   1.00
H2       0.39620    0.38817    0.16587   1.00
H2       0.41102    0.42840    0.19632   1.00
H2       0.55822    0.41257    0.15548   1.00
H2       0.60380    0.39194    0.17241   1.00
H2       0.58898    0.38569    0.12234   1.00
C4       1.02067    0.25039    0.24933   1.00
C4       0.97933    0.24961    0.25067   1.00
C3       1.04244    0.22177    0.22857   1.00
C3       0.95756    0.21733    0.23627   1.00
C4       1.04150    0.28017    0.26933   1.00
C4       0.95850    0.28183    0.26646   1.00
C2       1.10352    0.24945    0.24970   1.00
C2       0.89648    0.24946    0.24967   1.00
C3       1.08310    0.22127    0.22918   1.00
C3       0.91690    0.21760    0.23553   1.00
C3       1.08306    0.27890    0.26912   1.00
C3       0.91694    0.28101    0.26547   1.00
H1       1.02888    0.19979    0.21070   1.00
H1       0.97112    0.19086    0.22617   1.00
C5       1.02065    0.31068    0.28848   1.00
C5       0.97935    0.31366    0.28331   1.00
H1       1.09886    0.19892    0.21335   1.00
H1       0.90114    0.19272    0.22409   1.00
H1       1.10053    0.30084    0.28336   1.00
H1       0.89947    0.30431    0.27735   1.00
C6       1.04234    0.33885    0.31546   1.00
C6       0.95766    0.35112    0.29422   1.00
H2       1.02358    0.34742    0.34043   1.00
H2       1.06737    0.32473    0.33010   1.00
C6       1.05724    0.37464    0.29292   1.00
H2       0.97642    0.37702    0.28915   1.00
H2       0.93263    0.35673    0.27467   1.00
C6       0.94276    0.34949    0.33648   1.00
H2       1.03274    0.39026    0.27845   1.00
C6       1.07832    0.40271    0.32032   1.00
H2       1.07760    0.36522    0.26940   1.00
C6       0.92168    0.38726    0.34709   1.00
H2       0.92240    0.32441    0.34008   1.00
H2       0.96726    0.34476    0.35724   1.00
H2       1.05822    0.41314    0.34353   1.00
H2       1.10380    0.38817    0.33413   1.00
H2       1.08898    0.42840    0.30368   1.00
H2       0.94178    0.41257    0.34452   1.00
H2       0.89620    0.39194    0.32759   1.00
H2       0.91102    0.38569    0.37766   1.00
C4       0.75067    -0.02067   0.25039   1.00
C4       0.74933    0.02067    0.24961   1.00
C3       0.77143    -0.04244   0.22177   1.00
C3       0.76373    0.04244    0.21733   1.00
C4       0.73067    -0.04150   0.28017   1.00
C4       0.73354    0.04150    0.28183   1.00
C2       0.75030    -0.10352   0.24945   1.00
C2       0.75033    0.10352    0.24946   1.00
C3       0.77082    -0.08310   0.22127   1.00
C3       0.76447    0.08310    0.21760   1.00
C3       0.73088    -0.08306   0.27890   1.00
C3       0.73453    0.08306    0.28101   1.00
H1       0.78930    -0.02888   0.19979   1.00
H1       0.77383    0.02888    0.19086   1.00
C5       0.71152    -0.02065   0.31068   1.00
C5       0.71669    0.02065    0.31366   1.00
H1       0.78665    -0.09886   0.19892   1.00
H1       0.77591    0.09886    0.19272   1.00
H1       0.71664    -0.10053   0.30084   1.00
H1       0.72265    0.10053    0.30431   1.00
C6       0.68454    -0.04234   0.33885   1.00
C6       0.70578    0.04234    0.35112   1.00
H2       0.65957    -0.02358   0.34742   1.00
H2       0.66990    -0.06737   0.32473   1.00
C6       0.70708    -0.05724   0.37464   1.00
H2       0.71085    0.02358    0.37702   1.00
H2       0.72533    0.06737    0.35673   1.00
C6       0.66352    0.05724    0.34949   1.00
H2       0.72155    -0.03274   0.39026   1.00
C6       0.67968    -0.07832   0.40271   1.00
H2       0.73060    -0.07760   0.36522   1.00
C6       0.65291    0.07832    0.38726   1.00
H2       0.65992    0.07760    0.32441   1.00
H2       0.64276    0.03274    0.34476   1.00
H2       0.65647    -0.05822   0.41314   1.00
H2       0.66587    -0.10380   0.38817   1.00
H2       0.69632    -0.08898   0.42840   1.00
H2       0.65548    0.05822    0.41257   1.00
H2       0.67241    0.10380    0.39194   1.00
H2       0.62234    0.08898    0.38569   1.00
C4       0.75039    0.25067    -0.02067   1.00
C4       0.74961    0.24933    0.02067   1.00
C3       0.72177    0.27143    -0.04244   1.00
C3       0.71733    0.26373    0.04244   1.00
C4       0.78017    0.23067    -0.04150   1.00
C4       0.78183    0.23354    0.04150   1.00
C2       0.74945    0.25030    -0.10352   1.00
C2       0.74946    0.25033    0.10352   1.00
C3       0.72127    0.27082    -0.08310   1.00
C3       0.71760    0.26447    0.08310   1.00
C3       0.77890    0.23088    -0.08306   1.00
C3       0.78101    0.23453    0.08306   1.00
H1       0.69979    0.28930    -0.02888   1.00
H1       0.69086    0.27383    0.02888   1.00
C5       0.81068    0.21152    -0.02065   1.00
C5       0.81366    0.21669    0.02065   1.00
H1       0.69892    0.28665    -0.09886   1.00
H1       0.69272    0.27591    0.09886   1.00
H1       0.80084    0.21664    -0.10053   1.00
H1       0.80431    0.22265    0.10053   1.00
C6       0.83885    0.18454    -0.04234   1.00
C6       0.85112    0.20578    0.04234   1.00
H2       0.84742    0.15957    -0.02358   1.00
H2       0.82473    0.16990    -0.06737   1.00
C6       0.87464    0.20708    -0.05724   1.00
H2       0.87702    0.21085    0.02358   1.00
H2       0.85673    0.22533    0.06737   1.00
C6       0.84949    0.16352    0.05724   1.00
H2       0.89026    0.22155    -0.03274   1.00
C6       0.90271    0.17968    -0.07832   1.00
H2       0.86522    0.23060    -0.07760   1.00
C6       0.88726    0.15291    0.07832   1.00
H2       0.82441    0.15992    0.07760   1.00
H2       0.84476    0.14276    0.03274   1.00
H2       0.91314    0.15647    -0.05822   1.00
H2       0.88817    0.16587    -0.10380   1.00
H2       0.92840    0.19632    -0.08898   1.00
H2       0.91257    0.15548    0.05822   1.00
H2       0.89194    0.17241    0.10380   1.00
H2       0.88569    0.12234    0.08898   1.00
C4       0.91539    0.91433    1.18567   1.00
C4       0.91461    0.91567    1.14433   1.00
C3       0.88677    0.89357    1.20744   1.00
C3       0.88233    0.90127    1.12256   1.00
C4       0.94517    0.93433    1.20650   1.00
C4       0.94683    0.93146    1.12350   1.00
C2       0.91445    0.91470    1.26852   1.00
C2       0.91446    0.91467    1.06148   1.00
C3       0.88627    0.89418    1.24810   1.00
C3       0.88260    0.90053    1.08190   1.00
C3       0.94390    0.93412    1.24806   1.00
C3       0.94601    0.93047    1.08194   1.00
H1       0.86479    0.87570    1.19388   1.00
H1       0.85586    0.89117    1.13612   1.00
C5       0.97568    0.95348    1.18565   1.00
C5       0.97866    0.94831    1.14435   1.00
H1       0.86392    0.87835    1.26386   1.00
H1       0.85772    0.88909    1.06614   1.00
H1       0.96584    0.94836    1.26553   1.00
H1       0.96931    0.94235    1.06447   1.00
C6       1.00385    0.98046    1.20734   1.00
C6       1.01612    0.95922    1.12266   1.00
H2       1.01242    1.00543    1.18858   1.00
H2       0.98973    0.99510    1.23237   1.00
C6       1.03964    0.95792    1.22224   1.00
H2       1.04202    0.95415    1.14142   1.00
H2       1.02173    0.93967    1.09763   1.00
C6       1.01449    1.00148    1.10776   1.00
H2       1.05526    0.94345    1.19774   1.00
C6       1.06771    0.98532    1.24332   1.00
H2       1.03022    0.93440    1.24260   1.00
C6       1.05226    1.01209    1.08668   1.00
H2       0.98941    1.00508    1.08740   1.00
H2       1.00976    1.02224    1.13226   1.00
H2       1.07814    1.00853    1.22322   1.00
H2       1.05317    0.99913    1.26880   1.00
H2       1.09340    0.96868    1.25398   1.00
H2       1.07757    1.00952    1.10678   1.00
H2       1.05694    0.99259    1.06120   1.00
H2       1.05069    1.04266    1.07602   1.00
C4       0.91433    1.18567    0.91539   1.00
C4       0.91567    1.14433    0.91461   1.00
C3       0.89357    1.20744    0.88677   1.00
C3       0.90127    1.12256    0.88233   1.00
C4       0.93433    1.20650    0.94517   1.00
C4       0.93146    1.12350    0.94683   1.00
C2       0.91470    1.26852    0.91445   1.00
C2       0.91467    1.06148    0.91446   1.00
C3       0.89418    1.24810    0.88627   1.00
C3       0.90053    1.08190    0.88260   1.00
C3       0.93412    1.24806    0.94390   1.00
C3       0.93047    1.08194    0.94601   1.00
H1       0.87570    1.19388    0.86479   1.00
H1       0.89117    1.13612    0.85586   1.00
C5       0.95348    1.18565    0.97568   1.00
C5       0.94831    1.14435    0.97866   1.00
H1       0.87835    1.26386    0.86392   1.00
H1       0.88909    1.06614    0.85772   1.00
H1       0.94836    1.26553    0.96584   1.00
H1       0.94235    1.06447    0.96931   1.00
C6       0.98046    1.20734    1.00385   1.00
C6       0.95922    1.12266    1.01612   1.00
H2       1.00543    1.18858    1.01242   1.00
H2       0.99510    1.23237    0.98973   1.00
C6       0.95792    1.22224    1.03964   1.00
H2       0.95415    1.14142    1.04202   1.00
H2       0.93967    1.09763    1.02173   1.00
C6       1.00148    1.10776    1.01449   1.00
H2       0.94345    1.19774    1.05526   1.00
C6       0.98532    1.24332    1.06771   1.00
H2       0.93440    1.24260    1.03022   1.00
C6       1.01209    1.08668    1.05226   1.00
H2       1.00508    1.08740    0.98941   1.00
H2       1.02224    1.13226    1.00976   1.00
H2       1.00853    1.22322    1.07814   1.00
H2       0.99913    1.26880    1.05317   1.00
H2       0.96868    1.25398    1.09340   1.00
H2       1.00952    1.10678    1.07757   1.00
H2       0.99259    1.06120    1.05694   1.00
H2       1.04266    1.07602    1.05069   1.00
C4       0.64433    0.91539    0.91567   1.00
C4       0.68567    0.91461    0.91433   1.00
C3       0.62256    0.88677    0.93643   1.00
C3       0.70744    0.88233    0.92873   1.00
C4       0.62350    0.94517    0.89567   1.00
C4       0.70650    0.94683    0.89854   1.00
C2       0.56148    0.91445    0.91530   1.00
C2       0.76852    0.91446    0.91533   1.00
C3       0.58190    0.88627    0.93582   1.00
C3       0.74810    0.88260    0.92947   1.00
C3       0.58194    0.94390    0.89588   1.00
C3       0.74806    0.94601    0.89953   1.00
H1       0.63612    0.86479    0.95430   1.00
H1       0.69388    0.85586    0.93883   1.00
C5       0.64435    0.97568    0.87652   1.00
C5       0.68565    0.97866    0.88169   1.00
H1       0.56614    0.86392    0.95165   1.00
H1       0.76386    0.85772    0.94091   1.00
H1       0.56447    0.96584    0.88164   1.00
H1       0.76553    0.96931    0.88765   1.00
C6       0.62266    1.00385    0.84954   1.00
C6       0.70734    1.01612    0.87078   1.00
H2       0.64142    1.01242    0.82457   1.00
H2       0.59763    0.98973    0.83490   1.00
C6       0.60776    1.03964    0.87208   1.00
H2       0.68858    1.04202    0.87585   1.00
H2       0.73237    1.02173    0.89033   1.00
C6       0.72224    1.01449    0.82852   1.00
H2       0.63226    1.05526    0.88655   1.00
C6       0.58668    1.06771    0.84468   1.00
H2       0.58740    1.03022    0.89560   1.00
C6       0.74332    1.05226    0.81791   1.00
H2       0.74260    0.98941    0.82492   1.00
H2       0.69774    1.00976    0.80776   1.00
H2       0.60678    1.07814    0.82147   1.00
H2       0.56120    1.05317    0.83087   1.00
H2       0.57602    1.09340    0.86132   1.00
H2       0.72322    1.07757    0.82048   1.00
H2       0.76880    1.05694    0.83741   1.00
H2       0.75398    1.05069    0.78734   1.00
C4       1.18567    0.91539    0.91433   1.00
C4       1.14433    0.91461    0.91567   1.00
C3       1.20744    0.88677    0.89357   1.00
C3       1.12256    0.88233    0.90127   1.00
C4       1.20650    0.94517    0.93433   1.00
C4       1.12350    0.94683    0.93146   1.00
C2       1.26852    0.91445    0.91470   1.00
C2       1.06148    0.91446    0.91467   1.00
C3       1.24810    0.88627    0.89418   1.00
C3       1.08190    0.88260    0.90053   1.00
C3       1.24806    0.94390    0.93412   1.00
C3       1.08194    0.94601    0.93047   1.00
H1       1.19388    0.86479    0.87570   1.00
H1       1.13612    0.85586    0.89117   1.00
C5       1.18565    0.97568    0.95348   1.00
C5       1.14435    0.97866    0.94831   1.00
H1       1.26386    0.86392    0.87835   1.00
H1       1.06614    0.85772    0.88909   1.00
H1       1.26553    0.96584    0.94836   1.00
H1       1.06447    0.96931    0.94235   1.00
C6       1.20734    1.00385    0.98046   1.00
C6       1.12266    1.01612    0.95922   1.00
H2       1.18858    1.01242    1.00543   1.00
H2       1.23237    0.98973    0.99510   1.00
C6       1.22224    1.03964    0.95792   1.00
H2       1.14142    1.04202    0.95415   1.00
H2       1.09763    1.02173    0.93967   1.00
C6       1.10776    1.01449    1.00148   1.00
H2       1.19774    1.05526    0.94345   1.00
C6       1.24332    1.06771    0.98532   1.00
H2       1.24260    1.03022    0.93440   1.00
C6       1.08668    1.05226    1.01209   1.00
H2       1.08740    0.98941    1.00508   1.00
H2       1.13226    1.00976    1.02224   1.00
H2       1.22322    1.07814    1.00853   1.00
H2       1.26880    1.05317    0.99913   1.00
H2       1.25398    1.09340    0.96868   1.00
H2       1.10678    1.07757    1.00952   1.00
H2       1.06120    1.05694    0.99259   1.00
H2       1.07602    1.05069    1.04266   1.00
C4       0.91567    0.64433    0.91539   1.00
C4       0.91433    0.68567    0.91461   1.00
C3       0.93643    0.62256    0.88677   1.00
C3       0.92873    0.70744    0.88233   1.00
C4       0.89567    0.62350    0.94517   1.00
C4       0.89854    0.70650    0.94683   1.00
C2       0.91530    0.56148    0.91445   1.00
C2       0.91533    0.76852    0.91446   1.00
C3       0.93582    0.58190    0.88627   1.00
C3       0.92947    0.74810    0.88260   1.00
C3       0.89588    0.58194    0.94390   1.00
C3       0.89953    0.74806    0.94601   1.00
H1       0.95430    0.63612    0.86479   1.00
H1       0.93883    0.69388    0.85586   1.00
C5       0.87652    0.64435    0.97568   1.00
C5       0.88169    0.68565    0.97866   1.00
H1       0.95165    0.56614    0.86392   1.00
H1       0.94091    0.76386    0.85772   1.00
H1       0.88164    0.56447    0.96584   1.00
H1       0.88765    0.76553    0.96931   1.00
C6       0.84954    0.62266    1.00385   1.00
C6       0.87078    0.70734    1.01612   1.00
H2       0.82457    0.64142    1.01242   1.00
H2       0.83490    0.59763    0.98973   1.00
C6       0.87208    0.60776    1.03964   1.00
H2       0.87585    0.68858    1.04202   1.00
H2       0.89033    0.73237    1.02173   1.00
C6       0.82852    0.72224    1.01449   1.00
H2       0.88655    0.63226    1.05526   1.00
C6       0.84468    0.58668    1.06771   1.00
H2       0.89560    0.58740    1.03022   1.00
C6       0.81791    0.74332    1.05226   1.00
H2       0.82492    0.74260    0.98941   1.00
H2       0.80776    0.69774    1.00976   1.00
H2       0.82147    0.60678    1.07814   1.00
H2       0.83087    0.56120    1.05317   1.00
H2       0.86132    0.57602    1.09340   1.00
H2       0.82048    0.72322    1.07757   1.00
H2       0.83741    0.76880    1.05694   1.00
H2       0.78734    0.75398    1.05069   1.00
C4       0.91539    0.91567    0.64433   1.00
C4       0.91461    0.91433    0.68567   1.00
C3       0.88677    0.93643    0.62256   1.00
C3       0.88233    0.92873    0.70744   1.00
C4       0.94517    0.89567    0.62350   1.00
C4       0.94683    0.89854    0.70650   1.00
C2       0.91445    0.91530    0.56148   1.00
C2       0.91446    0.91533    0.76852   1.00
C3       0.88627    0.93582    0.58190   1.00
C3       0.88260    0.92947    0.74810   1.00
C3       0.94390    0.89588    0.58194   1.00
C3       0.94601    0.89953    0.74806   1.00
H1       0.86479    0.95430    0.63612   1.00
H1       0.85586    0.93883    0.69388   1.00
C5       0.97568    0.87652    0.64435   1.00
C5       0.97866    0.88169    0.68565   1.00
H1       0.86392    0.95165    0.56614   1.00
H1       0.85772    0.94091    0.76386   1.00
H1       0.96584    0.88164    0.56447   1.00
H1       0.96931    0.88765    0.76553   1.00
C6       1.00385    0.84954    0.62266   1.00
C6       1.01612    0.87078    0.70734   1.00
H2       1.01242    0.82457    0.64142   1.00
H2       0.98973    0.83490    0.59763   1.00
C6       1.03964    0.87208    0.60776   1.00
H2       1.04202    0.87585    0.68858   1.00
H2       1.02173    0.89033    0.73237   1.00
C6       1.01449    0.82852    0.72224   1.00
H2       1.05526    0.88655    0.63226   1.00
C6       1.06771    0.84468    0.58668   1.00
H2       1.03022    0.89560    0.58740   1.00
C6       1.05226    0.81791    0.74332   1.00
H2       0.98941    0.82492    0.74260   1.00
H2       1.00976    0.80776    0.69774   1.00
H2       1.07814    0.82147    0.60678   1.00
H2       1.05317    0.83087    0.56120   1.00
H2       1.09340    0.86132    0.57602   1.00
H2       1.07757    0.82048    0.72322   1.00
H2       1.05694    0.83741    0.76880   1.00
H2       1.05069    0.78734    0.75398   1.00
C4       0.41539    0.41433    1.18567   1.00
C4       0.41461    0.41567    1.14433   1.00
C3       0.38677    0.39357    1.20744   1.00
C3       0.38233    0.40127    1.12256   1.00
C4       0.44517    0.43433    1.20650   1.00
C4       0.44683    0.43146    1.12350   1.00
C2       0.41445    0.41470    1.26852   1.00
C2       0.41446    0.41467    1.06148   1.00
C3       0.38627    0.39418    1.24810   1.00
C3       0.38260    0.40053    1.08190   1.00
C3       0.44390    0.43412    1.24806   1.00
C3       0.44601    0.43047    1.08194   1.00
H1       0.36479    0.37570    1.19388   1.00
H1       0.35586    0.39117    1.13612   1.00
C5       0.47568    0.45348    1.18565   1.00
C5       0.47866    0.44831    1.14435   1.00
H1       0.36392    0.37835    1.26386   1.00
H1       0.35772    0.38909    1.06614   1.00
H1       0.46584    0.44836    1.26553   1.00
H1       0.46931    0.44235    1.06447   1.00
C6       0.50385    0.48046    1.20734   1.00
C6       0.51612    0.45922    1.12266   1.00
H2       0.51242    0.50543    1.18858   1.00
H2       0.48973    0.49510    1.23237   1.00
C6       0.53964    0.45792    1.22224   1.00
H2       0.54202    0.45415    1.14142   1.00
H2       0.52173    0.43967    1.09763   1.00
C6       0.51449    0.50148    1.10776   1.00
H2       0.55526    0.44345    1.19774   1.00
C6       0.56771    0.48532    1.24332   1.00
H2       0.53022    0.43440    1.24260   1.00
C6       0.55226    0.51209    1.08668   1.00
H2       0.48941    0.50508    1.08740   1.00
H2       0.50976    0.52224    1.13226   1.00
H2       0.57814    0.50853    1.22322   1.00
H2       0.55317    0.49913    1.26880   1.00
H2       0.59340    0.46868    1.25398   1.00
H2       0.57757    0.50952    1.10678   1.00
H2       0.55694    0.49259    1.06120   1.00
H2       0.55069    0.54266    1.07602   1.00
C4       0.41433    0.68567    0.91539   1.00
C4       0.41567    0.64433    0.91461   1.00
C3       0.39357    0.70744    0.88677   1.00
C3       0.40127    0.62256    0.88233   1.00
C4       0.43433    0.70650    0.94517   1.00
C4       0.43146    0.62350    0.94683   1.00
C2       0.41470    0.76852    0.91445   1.00
C2       0.41467    0.56148    0.91446   1.00
C3       0.39418    0.74810    0.88627   1.00
C3       0.40053    0.58190    0.88260   1.00
C3       0.43412    0.74806    0.94390   1.00
C3       0.43047    0.58194    0.94601   1.00
H1       0.37570    0.69388    0.86479   1.00
H1       0.39117    0.63612    0.85586   1.00
C5       0.45348    0.68565    0.97568   1.00
C5       0.44831    0.64435    0.97866   1.00
H1       0.37835    0.76386    0.86392   1.00
H1       0.38909    0.56614    0.85772   1.00
H1       0.44836    0.76553    0.96584   1.00
H1       0.44235    0.56447    0.96931   1.00
C6       0.48046    0.70734    1.00385   1.00
C6       0.45922    0.62266    1.01612   1.00
H2       0.50543    0.68858    1.01242   1.00
H2       0.49510    0.73237    0.98973   1.00
C6       0.45792    0.72224    1.03964   1.00
H2       0.45415    0.64142    1.04202   1.00
H2       0.43967    0.59763    1.02173   1.00
C6       0.50148    0.60776    1.01449   1.00
H2       0.44345    0.69774    1.05526   1.00
C6       0.48532    0.74332    1.06771   1.00
H2       0.43440    0.74260    1.03022   1.00
C6       0.51209    0.58668    1.05226   1.00
H2       0.50508    0.58740    0.98941   1.00
H2       0.52224    0.63226    1.00976   1.00
H2       0.50853    0.72322    1.07814   1.00
H2       0.49913    0.76880    1.05317   1.00
H2       0.46868    0.75398    1.09340   1.00
H2       0.50952    0.60678    1.07757   1.00
H2       0.49259    0.56120    1.05694   1.00
H2       0.54266    0.57602    1.05069   1.00
C4       0.14433    0.41539    0.91567   1.00
C4       0.18567    0.41461    0.91433   1.00
C3       0.12256    0.38677    0.93643   1.00
C3       0.20744    0.38233    0.92873   1.00
C4       0.12350    0.44517    0.89567   1.00
C4       0.20650    0.44683    0.89854   1.00
C2       0.06148    0.41445    0.91530   1.00
C2       0.26852    0.41446    0.91533   1.00
C3       0.08190    0.38627    0.93582   1.00
C3       0.24810    0.38260    0.92947   1.00
C3       0.08194    0.44390    0.89588   1.00
C3       0.24806    0.44601    0.89953   1.00
H1       0.13612    0.36479    0.95430   1.00
H1       0.19388    0.35586    0.93883   1.00
C5       0.14435    0.47568    0.87652   1.00
C5       0.18565    0.47866    0.88169   1.00
H1       0.06614    0.36392    0.95165   1.00
H1       0.26386    0.35772    0.94091   1.00
H1       0.06447    0.46584    0.88164   1.00
H1       0.26553    0.46931    0.88765   1.00
C6       0.12266    0.50385    0.84954   1.00
C6       0.20734    0.51612    0.87078   1.00
H2       0.14142    0.51242    0.82457   1.00
H2       0.09763    0.48973    0.83490   1.00
C6       0.10776    0.53964    0.87208   1.00
H2       0.18858    0.54202    0.87585   1.00
H2       0.23237    0.52173    0.89033   1.00
C6       0.22224    0.51449    0.82852   1.00
H2       0.13226    0.55526    0.88655   1.00
C6       0.08668    0.56771    0.84468   1.00
H2       0.08740    0.53022    0.89560   1.00
C6       0.24332    0.55226    0.81791   1.00
H2       0.24260    0.48941    0.82492   1.00
H2       0.19774    0.50976    0.80776   1.00
H2       0.10678    0.57814    0.82147   1.00
H2       0.06120    0.55317    0.83087   1.00
H2       0.07602    0.59340    0.86132   1.00
H2       0.22322    0.57757    0.82048   1.00
H2       0.26880    0.55694    0.83741   1.00
H2       0.25398    0.55069    0.78734   1.00
C4       0.68567    0.41539    0.91433   1.00
C4       0.64433    0.41461    0.91567   1.00
C3       0.70744    0.38677    0.89357   1.00
C3       0.62256    0.38233    0.90127   1.00
C4       0.70650    0.44517    0.93433   1.00
C4       0.62350    0.44683    0.93146   1.00
C2       0.76852    0.41445    0.91470   1.00
C2       0.56148    0.41446    0.91467   1.00
C3       0.74810    0.38627    0.89418   1.00
C3       0.58190    0.38260    0.90053   1.00
C3       0.74806    0.44390    0.93412   1.00
C3       0.58194    0.44601    0.93047   1.00
H1       0.69388    0.36479    0.87570   1.00
H1       0.63612    0.35586    0.89117   1.00
C5       0.68565    0.47568    0.95348   1.00
C5       0.64435    0.47866    0.94831   1.00
H1       0.76386    0.36392    0.87835   1.00
H1       0.56614    0.35772    0.88909   1.00
H1       0.76553    0.46584    0.94836   1.00
H1       0.56447    0.46931    0.94235   1.00
C6       0.70734    0.50385    0.98046   1.00
C6       0.62266    0.51612    0.95922   1.00
H2       0.68858    0.51242    1.00543   1.00
H2       0.73237    0.48973    0.99510   1.00
C6       0.72224    0.53964    0.95792   1.00
H2       0.64142    0.54202    0.95415   1.00
H2       0.59763    0.52173    0.93967   1.00
C6       0.60776    0.51449    1.00148   1.00
H2       0.69774    0.55526    0.94345   1.00
C6       0.74332    0.56771    0.98532   1.00
H2       0.74260    0.53022    0.93440   1.00
C6       0.58668    0.55226    1.01209   1.00
H2       0.58740    0.48941    1.00508   1.00
H2       0.63226    0.50976    1.02224   1.00
H2       0.72322    0.57814    1.00853   1.00
H2       0.76880    0.55317    0.99913   1.00
H2       0.75398    0.59340    0.96868   1.00
H2       0.60678    0.57757    1.00952   1.00
H2       0.56120    0.55694    0.99259   1.00
H2       0.57602    0.55069    1.04266   1.00
C4       0.41567    0.14433    0.91539   1.00
C4       0.41433    0.18567    0.91461   1.00
C3       0.43643    0.12256    0.88677   1.00
C3       0.42873    0.20744    0.88233   1.00
C4       0.39567    0.12350    0.94517   1.00
C4       0.39854    0.20650    0.94683   1.00
C2       0.41530    0.06148    0.91445   1.00
C2       0.41533    0.26852    0.91446   1.00
C3       0.43582    0.08190    0.88627   1.00
C3       0.42947    0.24810    0.88260   1.00
C3       0.39588    0.08194    0.94390   1.00
C3       0.39953    0.24806    0.94601   1.00
H1       0.45430    0.13612    0.86479   1.00
H1       0.43883    0.19388    0.85586   1.00
C5       0.37652    0.14435    0.97568   1.00
C5       0.38169    0.18565    0.97866   1.00
H1       0.45165    0.06614    0.86392   1.00
H1       0.44091    0.26386    0.85772   1.00
H1       0.38164    0.06447    0.96584   1.00
H1       0.38765    0.26553    0.96931   1.00
C6       0.34954    0.12266    1.00385   1.00
C6       0.37078    0.20734    1.01612   1.00
H2       0.32457    0.14142    1.01242   1.00
H2       0.33490    0.09763    0.98973   1.00
C6       0.37208    0.10776    1.03964   1.00
H2       0.37585    0.18858    1.04202   1.00
H2       0.39033    0.23237    1.02173   1.00
C6       0.32852    0.22224    1.01449   1.00
H2       0.38655    0.13226    1.05526   1.00
C6       0.34468    0.08668    1.06771   1.00
H2       0.39560    0.08740    1.03022   1.00
C6       0.31791    0.24332    1.05226   1.00
H2       0.32492    0.24260    0.98941   1.00
H2       0.30776    0.19774    1.00976   1.00
H2       0.32147    0.10678    1.07814   1.00
H2       0.33087    0.06120    1.05317   1.00
H2       0.36132    0.07602    1.09340   1.00
H2       0.32048    0.22322    1.07757   1.00
H2       0.33741    0.26880    1.05694   1.00
H2       0.28734    0.25398    1.05069   1.00
C4       0.41539    0.41567    0.64433   1.00
C4       0.41461    0.41433    0.68567   1.00
C3       0.38677    0.43643    0.62256   1.00
C3       0.38233    0.42873    0.70744   1.00
C4       0.44517    0.39567    0.62350   1.00
C4       0.44683    0.39854    0.70650   1.00
C2       0.41445    0.41530    0.56148   1.00
C2       0.41446    0.41533    0.76852   1.00
C3       0.38627    0.43582    0.58190   1.00
C3       0.38260    0.42947    0.74810   1.00
C3       0.44390    0.39588    0.58194   1.00
C3       0.44601    0.39953    0.74806   1.00
H1       0.36479    0.45430    0.63612   1.00
H1       0.35586    0.43883    0.69388   1.00
C5       0.47568    0.37652    0.64435   1.00
C5       0.47866    0.38169    0.68565   1.00
H1       0.36392    0.45165    0.56614   1.00
H1       0.35772    0.44091    0.76386   1.00
H1       0.46584    0.38164    0.56447   1.00
H1       0.46931    0.38765    0.76553   1.00
C6       0.50385    0.34954    0.62266   1.00
C6       0.51612    0.37078    0.70734   1.00
H2       0.51242    0.32457    0.64142   1.00
H2       0.48973    0.33490    0.59763   1.00
C6       0.53964    0.37208    0.60776   1.00
H2       0.54202    0.37585    0.68858   1.00
H2       0.52173    0.39033    0.73237   1.00
C6       0.51449    0.32852    0.72224   1.00
H2       0.55526    0.38655    0.63226   1.00
C6       0.56771    0.34468    0.58668   1.00
H2       0.53022    0.39560    0.58740   1.00
C6       0.55226    0.31791    0.74332   1.00
H2       0.48941    0.32492    0.74260   1.00
H2       0.50976    0.30776    0.69774   1.00
H2       0.57814    0.32147    0.60678   1.00
H2       0.55317    0.33087    0.56120   1.00
H2       0.59340    0.36132    0.57602   1.00
H2       0.57757    0.32048    0.72322   1.00
H2       0.55694    0.33741    0.76880   1.00
H2       0.55069    0.28734    0.75398   1.00
C4       0.41539    0.91433    0.68567   1.00
C4       0.41461    0.91567    0.64433   1.00
C3       0.38677    0.89357    0.70744   1.00
C3       0.38233    0.90127    0.62256   1.00
C4       0.44517    0.93433    0.70650   1.00
C4       0.44683    0.93146    0.62350   1.00
C2       0.41445    0.91470    0.76852   1.00
C2       0.41446    0.91467    0.56148   1.00
C3       0.38627    0.89418    0.74810   1.00
C3       0.38260    0.90053    0.58190   1.00
C3       0.44390    0.93412    0.74806   1.00
C3       0.44601    0.93047    0.58194   1.00
H1       0.36479    0.87570    0.69388   1.00
H1       0.35586    0.89117    0.63612   1.00
C5       0.47568    0.95348    0.68565   1.00
C5       0.47866    0.94831    0.64435   1.00
H1       0.36392    0.87835    0.76386   1.00
H1       0.35772    0.88909    0.56614   1.00
H1       0.46584    0.94836    0.76553   1.00
H1       0.46931    0.94235    0.56447   1.00
C6       0.50385    0.98046    0.70734   1.00
C6       0.51612    0.95922    0.62266   1.00
H2       0.51242    1.00543    0.68858   1.00
H2       0.48973    0.99510    0.73237   1.00
C6       0.53964    0.95792    0.72224   1.00
H2       0.54202    0.95415    0.64142   1.00
H2       0.52173    0.93967    0.59763   1.00
C6       0.51449    1.00148    0.60776   1.00
H2       0.55526    0.94345    0.69774   1.00
C6       0.56771    0.98532    0.74332   1.00
H2       0.53022    0.93440    0.74260   1.00
C6       0.55226    1.01209    0.58668   1.00
H2       0.48941    1.00508    0.58740   1.00
H2       0.50976    1.02224    0.63226   1.00
H2       0.57814    1.00853    0.72322   1.00
H2       0.55317    0.99913    0.76880   1.00
H2       0.59340    0.96868    0.75398   1.00
H2       0.57757    1.00952    0.60678   1.00
H2       0.55694    0.99259    0.56120   1.00
H2       0.55069    1.04266    0.57602   1.00
C4       0.41433    1.18567    0.41539   1.00
C4       0.41567    1.14433    0.41461   1.00
C3       0.39357    1.20744    0.38677   1.00
C3       0.40127    1.12256    0.38233   1.00
C4       0.43433    1.20650    0.44517   1.00
C4       0.43146    1.12350    0.44683   1.00
C2       0.41470    1.26852    0.41445   1.00
C2       0.41467    1.06148    0.41446   1.00
C3       0.39418    1.24810    0.38627   1.00
C3       0.40053    1.08190    0.38260   1.00
C3       0.43412    1.24806    0.44390   1.00
C3       0.43047    1.08194    0.44601   1.00
H1       0.37570    1.19388    0.36479   1.00
H1       0.39117    1.13612    0.35586   1.00
C5       0.45348    1.18565    0.47568   1.00
C5       0.44831    1.14435    0.47866   1.00
H1       0.37835    1.26386    0.36392   1.00
H1       0.38909    1.06614    0.35772   1.00
H1       0.44836    1.26553    0.46584   1.00
H1       0.44235    1.06447    0.46931   1.00
C6       0.48046    1.20734    0.50385   1.00
C6       0.45922    1.12266    0.51612   1.00
H2       0.50543    1.18858    0.51242   1.00
H2       0.49510    1.23237    0.48973   1.00
C6       0.45792    1.22224    0.53964   1.00
H2       0.45415    1.14142    0.54202   1.00
H2       0.43967    1.09763    0.52173   1.00
C6       0.50148    1.10776    0.51449   1.00
H2       0.44345    1.19774    0.55526   1.00
C6       0.48532    1.24332    0.56771   1.00
H2       0.43440    1.24260    0.53022   1.00
C6       0.51209    1.08668    0.55226   1.00
H2       0.50508    1.08740    0.48941   1.00
H2       0.52224    1.13226    0.50976   1.00
H2       0.50853    1.22322    0.57814   1.00
H2       0.49913    1.26880    0.55317   1.00
H2       0.46868    1.25398    0.59340   1.00
H2       0.50952    1.10678    0.57757   1.00
H2       0.49259    1.06120    0.55694   1.00
H2       0.54266    1.07602    0.55069   1.00
C4       0.14433    0.91539    0.41567   1.00
C4       0.18567    0.91461    0.41433   1.00
C3       0.12256    0.88677    0.43643   1.00
C3       0.20744    0.88233    0.42873   1.00
C4       0.12350    0.94517    0.39567   1.00
C4       0.20650    0.94683    0.39854   1.00
C2       0.06148    0.91445    0.41530   1.00
C2       0.26852    0.91446    0.41533   1.00
C3       0.08190    0.88627    0.43582   1.00
C3       0.24810    0.88260    0.42947   1.00
C3       0.08194    0.94390    0.39588   1.00
C3       0.24806    0.94601    0.39953   1.00
H1       0.13612    0.86479    0.45430   1.00
H1       0.19388    0.85586    0.43883   1.00
C5       0.14435    0.97568    0.37652   1.00
C5       0.18565    0.97866    0.38169   1.00
H1       0.06614    0.86392    0.45165   1.00
H1       0.26386    0.85772    0.44091   1.00
H1       0.06447    0.96584    0.38164   1.00
H1       0.26553    0.96931    0.38765   1.00
C6       0.12266    1.00385    0.34954   1.00
C6       0.20734    1.01612    0.37078   1.00
H2       0.14142    1.01242    0.32457   1.00
H2       0.09763    0.98973    0.33490   1.00
C6       0.10776    1.03964    0.37208   1.00
H2       0.18858    1.04202    0.37585   1.00
H2       0.23237    1.02173    0.39033   1.00
C6       0.22224    1.01449    0.32852   1.00
H2       0.13226    1.05526    0.38655   1.00
C6       0.08668    1.06771    0.34468   1.00
H2       0.08740    1.03022    0.39560   1.00
C6       0.24332    1.05226    0.31791   1.00
H2       0.24260    0.98941    0.32492   1.00
H2       0.19774    1.00976    0.30776   1.00
H2       0.10678    1.07814    0.32147   1.00
H2       0.06120    1.05317    0.33087   1.00
H2       0.07602    1.09340    0.36132   1.00
H2       0.22322    1.07757    0.32048   1.00
H2       0.26880    1.05694    0.33741   1.00
H2       0.25398    1.05069    0.28734   1.00
C4       0.68567    0.91539    0.41433   1.00
C4       0.64433    0.91461    0.41567   1.00
C3       0.70744    0.88677    0.39357   1.00
C3       0.62256    0.88233    0.40127   1.00
C4       0.70650    0.94517    0.43433   1.00
C4       0.62350    0.94683    0.43146   1.00
C2       0.76852    0.91445    0.41470   1.00
C2       0.56148    0.91446    0.41467   1.00
C3       0.74810    0.88627    0.39418   1.00
C3       0.58190    0.88260    0.40053   1.00
C3       0.74806    0.94390    0.43412   1.00
C3       0.58194    0.94601    0.43047   1.00
H1       0.69388    0.86479    0.37570   1.00
H1       0.63612    0.85586    0.39117   1.00
C5       0.68565    0.97568    0.45348   1.00
C5       0.64435    0.97866    0.44831   1.00
H1       0.76386    0.86392    0.37835   1.00
H1       0.56614    0.85772    0.38909   1.00
H1       0.76553    0.96584    0.44836   1.00
H1       0.56447    0.96931    0.44235   1.00
C6       0.70734    1.00385    0.48046   1.00
C6       0.62266    1.01612    0.45922   1.00
H2       0.68858    1.01242    0.50543   1.00
H2       0.73237    0.98973    0.49510   1.00
C6       0.72224    1.03964    0.45792   1.00
H2       0.64142    1.04202    0.45415   1.00
H2       0.59763    1.02173    0.43967   1.00
C6       0.60776    1.01449    0.50148   1.00
H2       0.69774    1.05526    0.44345   1.00
C6       0.74332    1.06771    0.48532   1.00
H2       0.74260    1.03022    0.43440   1.00
C6       0.58668    1.05226    0.51209   1.00
H2       0.58740    0.98941    0.50508   1.00
H2       0.63226    1.00976    0.52224   1.00
H2       0.72322    1.07814    0.50853   1.00
H2       0.76880    1.05317    0.49913   1.00
H2       0.75398    1.09340    0.46868   1.00
H2       0.60678    1.07757    0.50952   1.00
H2       0.56120    1.05694    0.49259   1.00
H2       0.57602    1.05069    0.54266   1.00
C4       0.41567    0.64433    0.41539   1.00
C4       0.41433    0.68567    0.41461   1.00
C3       0.43643    0.62256    0.38677   1.00
C3       0.42873    0.70744    0.38233   1.00
C4       0.39567    0.62350    0.44517   1.00
C4       0.39854    0.70650    0.44683   1.00
C2       0.41530    0.56148    0.41445   1.00
C2       0.41533    0.76852    0.41446   1.00
C3       0.43582    0.58190    0.38627   1.00
C3       0.42947    0.74810    0.38260   1.00
C3       0.39588    0.58194    0.44390   1.00
C3       0.39953    0.74806    0.44601   1.00
H1       0.45430    0.63612    0.36479   1.00
H1       0.43883    0.69388    0.35586   1.00
C5       0.37652    0.64435    0.47568   1.00
C5       0.38169    0.68565    0.47866   1.00
H1       0.45165    0.56614    0.36392   1.00
H1       0.44091    0.76386    0.35772   1.00
H1       0.38164    0.56447    0.46584   1.00
H1       0.38765    0.76553    0.46931   1.00
C6       0.34954    0.62266    0.50385   1.00
C6       0.37078    0.70734    0.51612   1.00
H2       0.32457    0.64142    0.51242   1.00
H2       0.33490    0.59763    0.48973   1.00
C6       0.37208    0.60776    0.53964   1.00
H2       0.37585    0.68858    0.54202   1.00
H2       0.39033    0.73237    0.52173   1.00
C6       0.32852    0.72224    0.51449   1.00
H2       0.38655    0.63226    0.55526   1.00
C6       0.34468    0.58668    0.56771   1.00
H2       0.39560    0.58740    0.53022   1.00
C6       0.31791    0.74332    0.55226   1.00
H2       0.32492    0.74260    0.48941   1.00
H2       0.30776    0.69774    0.50976   1.00
H2       0.32147    0.60678    0.57814   1.00
H2       0.33087    0.56120    0.55317   1.00
H2       0.36132    0.57602    0.59340   1.00
H2       0.32048    0.72322    0.57757   1.00
H2       0.33741    0.76880    0.55694   1.00
H2       0.28734    0.75398    0.55069   1.00
C4       0.41539    0.91567    0.14433   1.00
C4       0.41461    0.91433    0.18567   1.00
C3       0.38677    0.93643    0.12256   1.00
C3       0.38233    0.92873    0.20744   1.00
C4       0.44517    0.89567    0.12350   1.00
C4       0.44683    0.89854    0.20650   1.00
C2       0.41445    0.91530    0.06148   1.00
C2       0.41446    0.91533    0.26852   1.00
C3       0.38627    0.93582    0.08190   1.00
C3       0.38260    0.92947    0.24810   1.00
C3       0.44390    0.89588    0.08194   1.00
C3       0.44601    0.89953    0.24806   1.00
H1       0.36479    0.95430    0.13612   1.00
H1       0.35586    0.93883    0.19388   1.00
C5       0.47568    0.87652    0.14435   1.00
C5       0.47866    0.88169    0.18565   1.00
H1       0.36392    0.95165    0.06614   1.00
H1       0.35772    0.94091    0.26386   1.00
H1       0.46584    0.88164    0.06447   1.00
H1       0.46931    0.88765    0.26553   1.00
C6       0.50385    0.84954    0.12266   1.00
C6       0.51612    0.87078    0.20734   1.00
H2       0.51242    0.82457    0.14142   1.00
H2       0.48973    0.83490    0.09763   1.00
C6       0.53964    0.87208    0.10776   1.00
H2       0.54202    0.87585    0.18858   1.00
H2       0.52173    0.89033    0.23237   1.00
C6       0.51449    0.82852    0.22224   1.00
H2       0.55526    0.88655    0.13226   1.00
C6       0.56771    0.84468    0.08668   1.00
H2       0.53022    0.89560    0.08740   1.00
C6       0.55226    0.81791    0.24332   1.00
H2       0.48941    0.82492    0.24260   1.00
H2       0.50976    0.80776    0.19774   1.00
H2       0.57814    0.82147    0.10678   1.00
H2       0.55317    0.83087    0.06120   1.00
H2       0.59340    0.86132    0.07602   1.00
H2       0.57757    0.82048    0.22322   1.00
H2       0.55694    0.83741    0.26880   1.00
H2       0.55069    0.78734    0.25398   1.00
C4       0.91539    0.41433    0.68567   1.00
C4       0.91461    0.41567    0.64433   1.00
C3       0.88677    0.39357    0.70744   1.00
C3       0.88233    0.40127    0.62256   1.00
C4       0.94517    0.43433    0.70650   1.00
C4       0.94683    0.43146    0.62350   1.00
C2       0.91445    0.41470    0.76852   1.00
C2       0.91446    0.41467    0.56148   1.00
C3       0.88627    0.39418    0.74810   1.00
C3       0.88260    0.40053    0.58190   1.00
C3       0.94390    0.43412    0.74806   1.00
C3       0.94601    0.43047    0.58194   1.00
H1       0.86479    0.37570    0.69388   1.00
H1       0.85586    0.39117    0.63612   1.00
C5       0.97568    0.45348    0.68565   1.00
C5       0.97866    0.44831    0.64435   1.00
H1       0.86392    0.37835    0.76386   1.00
H1       0.85772    0.38909    0.56614   1.00
H1       0.96584    0.44836    0.76553   1.00
H1       0.96931    0.44235    0.56447   1.00
C6       1.00385    0.48046    0.70734   1.00
C6       1.01612    0.45922    0.62266   1.00
H2       1.01242    0.50543    0.68858   1.00
H2       0.98973    0.49510    0.73237   1.00
C6       1.03964    0.45792    0.72224   1.00
H2       1.04202    0.45415    0.64142   1.00
H2       1.02173    0.43967    0.59763   1.00
C6       1.01449    0.50148    0.60776   1.00
H2       1.05526    0.44345    0.69774   1.00
C6       1.06771    0.48532    0.74332   1.00
H2       1.03022    0.43440    0.74260   1.00
C6       1.05226    0.51209    0.58668   1.00
H2       0.98941    0.50508    0.58740   1.00
H2       1.00976    0.52224    0.63226   1.00
H2       1.07814    0.50853    0.72322   1.00
H2       1.05317    0.49913    0.76880   1.00
H2       1.09340    0.46868    0.75398   1.00
H2       1.07757    0.50952    0.60678   1.00
H2       1.05694    0.49259    0.56120   1.00
H2       1.05069    0.54266    0.57602   1.00
C4       0.91433    0.68567    0.41539   1.00
C4       0.91567    0.64433    0.41461   1.00
C3       0.89357    0.70744    0.38677   1.00
C3       0.90127    0.62256    0.38233   1.00
C4       0.93433    0.70650    0.44517   1.00
C4       0.93146    0.62350    0.44683   1.00
C2       0.91470    0.76852    0.41445   1.00
C2       0.91467    0.56148    0.41446   1.00
C3       0.89418    0.74810    0.38627   1.00
C3       0.90053    0.58190    0.38260   1.00
C3       0.93412    0.74806    0.44390   1.00
C3       0.93047    0.58194    0.44601   1.00
H1       0.87570    0.69388    0.36479   1.00
H1       0.89117    0.63612    0.35586   1.00
C5       0.95348    0.68565    0.47568   1.00
C5       0.94831    0.64435    0.47866   1.00
H1       0.87835    0.76386    0.36392   1.00
H1       0.88909    0.56614    0.35772   1.00
H1       0.94836    0.76553    0.46584   1.00
H1       0.94235    0.56447    0.46931   1.00
C6       0.98046    0.70734    0.50385   1.00
C6       0.95922    0.62266    0.51612   1.00
H2       1.00543    0.68858    0.51242   1.00
H2       0.99510    0.73237    0.48973   1.00
C6       0.95792    0.72224    0.53964   1.00
H2       0.95415    0.64142    0.54202   1.00
H2       0.93967    0.59763    0.52173   1.00
C6       1.00148    0.60776    0.51449   1.00
H2       0.94345    0.69774    0.55526   1.00
C6       0.98532    0.74332    0.56771   1.00
H2       0.93440    0.74260    0.53022   1.00
C6       1.01209    0.58668    0.55226   1.00
H2       1.00508    0.58740    0.48941   1.00
H2       1.02224    0.63226    0.50976   1.00
H2       1.00853    0.72322    0.57814   1.00
H2       0.99913    0.76880    0.55317   1.00
H2       0.96868    0.75398    0.59340   1.00
H2       1.00952    0.60678    0.57757   1.00
H2       0.99259    0.56120    0.55694   1.00
H2       1.04266    0.57602    0.55069   1.00
C4       0.64433    0.41539    0.41567   1.00
C4       0.68567    0.41461    0.41433   1.00
C3       0.62256    0.38677    0.43643   1.00
C3       0.70744    0.38233    0.42873   1.00
C4       0.62350    0.44517    0.39567   1.00
C4       0.70650    0.44683    0.39854   1.00
C2       0.56148    0.41445    0.41530   1.00
C2       0.76852    0.41446    0.41533   1.00
C3       0.58190    0.38627    0.43582   1.00
C3       0.74810    0.38260    0.42947   1.00
C3       0.58194    0.44390    0.39588   1.00
C3       0.74806    0.44601    0.39953   1.00
H1       0.63612    0.36479    0.45430   1.00
H1       0.69388    0.35586    0.43883   1.00
C5       0.64435    0.47568    0.37652   1.00
C5       0.68565    0.47866    0.38169   1.00
H1       0.56614    0.36392    0.45165   1.00
H1       0.76386    0.35772    0.44091   1.00
H1       0.56447    0.46584    0.38164   1.00
H1       0.76553    0.46931    0.38765   1.00
C6       0.62266    0.50385    0.34954   1.00
C6       0.70734    0.51612    0.37078   1.00
H2       0.64142    0.51242    0.32457   1.00
H2       0.59763    0.48973    0.33490   1.00
C6       0.60776    0.53964    0.37208   1.00
H2       0.68858    0.54202    0.37585   1.00
H2       0.73237    0.52173    0.39033   1.00
C6       0.72224    0.51449    0.32852   1.00
H2       0.63226    0.55526    0.38655   1.00
C6       0.58668    0.56771    0.34468   1.00
H2       0.58740    0.53022    0.39560   1.00
C6       0.74332    0.55226    0.31791   1.00
H2       0.74260    0.48941    0.32492   1.00
H2       0.69774    0.50976    0.30776   1.00
H2       0.60678    0.57814    0.32147   1.00
H2       0.56120    0.55317    0.33087   1.00
H2       0.57602    0.59340    0.36132   1.00
H2       0.72322    0.57757    0.32048   1.00
H2       0.76880    0.55694    0.33741   1.00
H2       0.75398    0.55069    0.28734   1.00
C4       1.18567    0.41539    0.41433   1.00
C4       1.14433    0.41461    0.41567   1.00
C3       1.20744    0.38677    0.39357   1.00
C3       1.12256    0.38233    0.40127   1.00
C4       1.20650    0.44517    0.43433   1.00
C4       1.12350    0.44683    0.43146   1.00
C2       1.26852    0.41445    0.41470   1.00
C2       1.06148    0.41446    0.41467   1.00
C3       1.24810    0.38627    0.39418   1.00
C3       1.08190    0.38260    0.40053   1.00
C3       1.24806    0.44390    0.43412   1.00
C3       1.08194    0.44601    0.43047   1.00
H1       1.19388    0.36479    0.37570   1.00
H1       1.13612    0.35586    0.39117   1.00
C5       1.18565    0.47568    0.45348   1.00
C5       1.14435    0.47866    0.44831   1.00
H1       1.26386    0.36392    0.37835   1.00
H1       1.06614    0.35772    0.38909   1.00
H1       1.26553    0.46584    0.44836   1.00
H1       1.06447    0.46931    0.44235   1.00
C6       1.20734    0.50385    0.48046   1.00
C6       1.12266    0.51612    0.45922   1.00
H2       1.18858    0.51242    0.50543   1.00
H2       1.23237    0.48973    0.49510   1.00
C6       1.22224    0.53964    0.45792   1.00
H2       1.14142    0.54202    0.45415   1.00
H2       1.09763    0.52173    0.43967   1.00
C6       1.10776    0.51449    0.50148   1.00
H2       1.19774    0.55526    0.44345   1.00
C6       1.24332    0.56771    0.48532   1.00
H2       1.24260    0.53022    0.43440   1.00
C6       1.08668    0.55226    0.51209   1.00
H2       1.08740    0.48941    0.50508   1.00
H2       1.13226    0.50976    0.52224   1.00
H2       1.22322    0.57814    0.50853   1.00
H2       1.26880    0.55317    0.49913   1.00
H2       1.25398    0.59340    0.46868   1.00
H2       1.10678    0.57757    0.50952   1.00
H2       1.06120    0.55694    0.49259   1.00
H2       1.07602    0.55069    0.54266   1.00
C4       0.91567    0.14433    0.41539   1.00
C4       0.91433    0.18567    0.41461   1.00
C3       0.93643    0.12256    0.38677   1.00
C3       0.92873    0.20744    0.38233   1.00
C4       0.89567    0.12350    0.44517   1.00
C4       0.89854    0.20650    0.44683   1.00
C2       0.91530    0.06148    0.41445   1.00
C2       0.91533    0.26852    0.41446   1.00
C3       0.93582    0.08190    0.38627   1.00
C3       0.92947    0.24810    0.38260   1.00
C3       0.89588    0.08194    0.44390   1.00
C3       0.89953    0.24806    0.44601   1.00
H1       0.95430    0.13612    0.36479   1.00
H1       0.93883    0.19388    0.35586   1.00
C5       0.87652    0.14435    0.47568   1.00
C5       0.88169    0.18565    0.47866   1.00
H1       0.95165    0.06614    0.36392   1.00
H1       0.94091    0.26386    0.35772   1.00
H1       0.88164    0.06447    0.46584   1.00
H1       0.88765    0.26553    0.46931   1.00
C6       0.84954    0.12266    0.50385   1.00
C6       0.87078    0.20734    0.51612   1.00
H2       0.82457    0.14142    0.51242   1.00
H2       0.83490    0.09763    0.48973   1.00
C6       0.87208    0.10776    0.53964   1.00
H2       0.87585    0.18858    0.54202   1.00
H2       0.89033    0.23237    0.52173   1.00
C6       0.82852    0.22224    0.51449   1.00
H2       0.88655    0.13226    0.55526   1.00
C6       0.84468    0.08668    0.56771   1.00
H2       0.89560    0.08740    0.53022   1.00
C6       0.81791    0.24332    0.55226   1.00
H2       0.82492    0.24260    0.48941   1.00
H2       0.80776    0.19774    0.50976   1.00
H2       0.82147    0.10678    0.57814   1.00
H2       0.83087    0.06120    0.55317   1.00
H2       0.86132    0.07602    0.59340   1.00
H2       0.82048    0.22322    0.57757   1.00
H2       0.83741    0.26880    0.55694   1.00
H2       0.78734    0.25398    0.55069   1.00
C4       0.91539    0.41567    0.14433   1.00
C4       0.91461    0.41433    0.18567   1.00
C3       0.88677    0.43643    0.12256   1.00
C3       0.88233    0.42873    0.20744   1.00
C4       0.94517    0.39567    0.12350   1.00
C4       0.94683    0.39854    0.20650   1.00
C2       0.91445    0.41530    0.06148   1.00
C2       0.91446    0.41533    0.26852   1.00
C3       0.88627    0.43582    0.08190   1.00
C3       0.88260    0.42947    0.24810   1.00
C3       0.94390    0.39588    0.08194   1.00
C3       0.94601    0.39953    0.24806   1.00
H1       0.86479    0.45430    0.13612   1.00
H1       0.85586    0.43883    0.19388   1.00
C5       0.97568    0.37652    0.14435   1.00
C5       0.97866    0.38169    0.18565   1.00
H1       0.86392    0.45165    0.06614   1.00
H1       0.85772    0.44091    0.26386   1.00
H1       0.96584    0.38164    0.06447   1.00
H1       0.96931    0.38765    0.26553   1.00
C6       1.00385    0.34954    0.12266   1.00
C6       1.01612    0.37078    0.20734   1.00
H2       1.01242    0.32457    0.14142   1.00
H2       0.98973    0.33490    0.09763   1.00
C6       1.03964    0.37208    0.10776   1.00
H2       1.04202    0.37585    0.18858   1.00
H2       1.02173    0.39033    0.23237   1.00
C6       1.01449    0.32852    0.22224   1.00
H2       1.05526    0.38655    0.13226   1.00
C6       1.06771    0.34468    0.08668   1.00
H2       1.03022    0.39560    0.08740   1.00
C6       1.05226    0.31791    0.24332   1.00
H2       0.98941    0.32492    0.24260   1.00
H2       1.00976    0.30776    0.19774   1.00
H2       1.07814    0.32147    0.10678   1.00
H2       1.05317    0.33087    0.06120   1.00
H2       1.09340    0.36132    0.07602   1.00
H2       1.07757    0.32048    0.22322   1.00
H2       1.05694    0.33741    0.26880   1.00
H2       1.05069    0.28734    0.25398   1.00
