data_IRMOF10_SG202_interpen_Ligand1cp_label_l.

_audit_creation_method             'generated by an auxiliary program of Tobunporous'

_symmetry_space_group_name_H-M     'P 1'
_symmetry_Int_Tables_number        1
_symmetry_cell_setting             triclinic

_cell_length_a                    34.2800
_cell_length_b                    34.2800
_cell_length_c                    34.2800
_cell_angle_alpha                 90.0000
_cell_angle_beta                  90.0000
_cell_angle_gamma                 90.0000

loop_
_atom_site_label
_atom_site_fract_x
_atom_site_fract_y
_atom_site_fract_z
_atom_site_occupancy
O1       0.75000    0.75000    0.75000   1.00
Zn1      0.71720    0.78280    0.78280   1.00
Zn1      0.78280    0.71720    0.78280   1.00
Zn1      0.78280    0.78280    0.71720   1.00
Zn1      0.71720    0.71720    0.71720   1.00
O2       0.72650    0.77350    0.83820   1.00
O2       0.72650    0.83820    0.77350   1.00
O2       0.66180    0.77350    0.77350   1.00
O2       0.77350    0.72650    0.83820   1.00
O2       0.83820    0.72650    0.77350   1.00
O2       0.77350    0.66180    0.77350   1.00
O2       0.77350    0.83820    0.72650   1.00
O2       0.83820    0.77350    0.72650   1.00
O2       0.77350    0.77350    0.66180   1.00
O2       0.66180    0.72650    0.72650   1.00
O2       0.72650    0.66180    0.72650   1.00
O2       0.72650    0.72650    0.66180   1.00
C1       0.75000    0.75000    0.85520   1.00
C1       0.75000    0.85520    0.75000   1.00
C1       0.64480    0.75000    0.75000   1.00
C1       0.85520    0.75000    0.75000   1.00
C1       0.75000    0.64480    0.75000   1.00
C1       0.75000    0.75000    0.64480   1.00
O1       0.25000    0.25000    0.75000   1.00
Zn1      0.21720    0.28280    0.78280   1.00
Zn1      0.28280    0.21720    0.78280   1.00
Zn1      0.28280    0.28280    0.71720   1.00
Zn1      0.21720    0.21720    0.71720   1.00
O2       0.22650    0.27350    0.83820   1.00
O2       0.22650    0.33820    0.77350   1.00
O2       0.16180    0.27350    0.77350   1.00
O2       0.27350    0.22650    0.83820   1.00
O2       0.33820    0.22650    0.77350   1.00
O2       0.27350    0.16180    0.77350   1.00
O2       0.27350    0.33820    0.72650   1.00
O2       0.33820    0.27350    0.72650   1.00
O2       0.27350    0.27350    0.66180   1.00
O2       0.16180    0.22650    0.72650   1.00
O2       0.22650    0.16180    0.72650   1.00
O2       0.22650    0.22650    0.66180   1.00
C1       0.25000    0.25000    0.85520   1.00
C1       0.25000    0.35520    0.75000   1.00
C1       0.14480    0.25000    0.75000   1.00
C1       0.35520    0.25000    0.75000   1.00
C1       0.25000    0.14480    0.75000   1.00
C1       0.25000    0.25000    0.64480   1.00
O1       0.25000    0.75000    0.25000   1.00
Zn1      0.21720    0.78280    0.28280   1.00
Zn1      0.28280    0.71720    0.28280   1.00
Zn1      0.28280    0.78280    0.21720   1.00
Zn1      0.21720    0.71720    0.21720   1.00
O2       0.22650    0.77350    0.33820   1.00
O2       0.22650    0.83820    0.27350   1.00
O2       0.16180    0.77350    0.27350   1.00
O2       0.27350    0.72650    0.33820   1.00
O2       0.33820    0.72650    0.27350   1.00
O2       0.27350    0.66180    0.27350   1.00
O2       0.27350    0.83820    0.22650   1.00
O2       0.33820    0.77350    0.22650   1.00
O2       0.27350    0.77350    0.16180   1.00
O2       0.16180    0.72650    0.22650   1.00
O2       0.22650    0.66180    0.22650   1.00
O2       0.22650    0.72650    0.16180   1.00
C1       0.25000    0.75000    0.35520   1.00
C1       0.25000    0.85520    0.25000   1.00
C1       0.14480    0.75000    0.25000   1.00
C1       0.35520    0.75000    0.25000   1.00
C1       0.25000    0.64480    0.25000   1.00
C1       0.25000    0.75000    0.14480   1.00
O1       0.75000    0.25000    0.25000   1.00
Zn1      0.71720    0.28280    0.28280   1.00
Zn1      0.78280    0.21720    0.28280   1.00
Zn1      0.78280    0.28280    0.21720   1.00
Zn1      0.71720    0.21720    0.21720   1.00
O2       0.72650    0.27350    0.33820   1.00
O2       0.72650    0.33820    0.27350   1.00
O2       0.66180    0.27350    0.27350   1.00
O2       0.77350    0.22650    0.33820   1.00
O2       0.83820    0.22650    0.27350   1.00
O2       0.77350    0.16180    0.27350   1.00
O2       0.77350    0.33820    0.22650   1.00
O2       0.83820    0.27350    0.22650   1.00
O2       0.77350    0.27350    0.16180   1.00
O2       0.66180    0.22650    0.22650   1.00
O2       0.72650    0.16180    0.22650   1.00
O2       0.72650    0.22650    0.16180   1.00
C1       0.75000    0.25000    0.35520   1.00
C1       0.75000    0.35520    0.25000   1.00
C1       0.64480    0.25000    0.25000   1.00
C1       0.85520    0.25000    0.25000   1.00
C1       0.75000    0.14480    0.25000   1.00
C1       0.75000    0.25000    0.14480   1.00
O1       0.25000    0.25000    0.25000   1.00
Zn1      0.28280    0.21720    0.21720   1.00
Zn1      0.21720    0.28280    0.21720   1.00
Zn1      0.21720    0.21720    0.28280   1.00
Zn1      0.28280    0.28280    0.28280   1.00
O2       0.27350    0.22650    0.16180   1.00
O2       0.27350    0.16180    0.22650   1.00
O2       0.33820    0.22650    0.22650   1.00
O2       0.22650    0.27350    0.16180   1.00
O2       0.16180    0.27350    0.22650   1.00
O2       0.22650    0.33820    0.22650   1.00
O2       0.22650    0.16180    0.27350   1.00
O2       0.16180    0.22650    0.27350   1.00
O2       0.22650    0.22650    0.33820   1.00
O2       0.33820    0.27350    0.27350   1.00
O2       0.27350    0.33820    0.27350   1.00
O2       0.27350    0.27350    0.33820   1.00
C1       0.25000    0.25000    0.14480   1.00
C1       0.25000    0.14480    0.25000   1.00
C1       0.35520    0.25000    0.25000   1.00
C1       0.14480    0.25000    0.25000   1.00
C1       0.25000    0.35520    0.25000   1.00
C1       0.25000    0.25000    0.35520   1.00
O1       0.75000    0.75000    0.25000   1.00
Zn1      0.78280    0.71720    0.21720   1.00
Zn1      0.71720    0.78280    0.21720   1.00
Zn1      0.71720    0.71720    0.28280   1.00
Zn1      0.78280    0.78280    0.28280   1.00
O2       0.77350    0.72650    0.16180   1.00
O2       0.77350    0.66180    0.22650   1.00
O2       0.83820    0.72650    0.22650   1.00
O2       0.72650    0.77350    0.16180   1.00
O2       0.66180    0.77350    0.22650   1.00
O2       0.72650    0.83820    0.22650   1.00
O2       0.72650    0.66180    0.27350   1.00
O2       0.66180    0.72650    0.27350   1.00
O2       0.72650    0.72650    0.33820   1.00
O2       0.83820    0.77350    0.27350   1.00
O2       0.77350    0.83820    0.27350   1.00
O2       0.77350    0.77350    0.33820   1.00
C1       0.75000    0.75000    0.14480   1.00
C1       0.75000    0.64480    0.25000   1.00
C1       0.85520    0.75000    0.25000   1.00
C1       0.64480    0.75000    0.25000   1.00
C1       0.75000    0.85520    0.25000   1.00
C1       0.75000    0.75000    0.35520   1.00
O1       0.75000    0.25000    0.75000   1.00
Zn1      0.78280    0.21720    0.71720   1.00
Zn1      0.71720    0.28280    0.71720   1.00
Zn1      0.71720    0.21720    0.78280   1.00
Zn1      0.78280    0.28280    0.78280   1.00
O2       0.77350    0.22650    0.66180   1.00
O2       0.77350    0.16180    0.72650   1.00
O2       0.83820    0.22650    0.72650   1.00
O2       0.72650    0.27350    0.66180   1.00
O2       0.66180    0.27350    0.72650   1.00
O2       0.72650    0.33820    0.72650   1.00
O2       0.72650    0.16180    0.77350   1.00
O2       0.66180    0.22650    0.77350   1.00
O2       0.72650    0.22650    0.83820   1.00
O2       0.83820    0.27350    0.77350   1.00
O2       0.77350    0.33820    0.77350   1.00
O2       0.77350    0.27350    0.83820   1.00
C1       0.75000    0.25000    0.64480   1.00
C1       0.75000    0.14480    0.75000   1.00
C1       0.85520    0.25000    0.75000   1.00
C1       0.64480    0.25000    0.75000   1.00
C1       0.75000    0.35520    0.75000   1.00
C1       0.75000    0.25000    0.85520   1.00
O1       0.25000    0.75000    0.75000   1.00
Zn1      0.28280    0.71720    0.71720   1.00
Zn1      0.21720    0.78280    0.71720   1.00
Zn1      0.21720    0.71720    0.78280   1.00
Zn1      0.28280    0.78280    0.78280   1.00
O2       0.27350    0.72650    0.66180   1.00
O2       0.27350    0.66180    0.72650   1.00
O2       0.33820    0.72650    0.72650   1.00
O2       0.22650    0.77350    0.66180   1.00
O2       0.16180    0.77350    0.72650   1.00
O2       0.22650    0.83820    0.72650   1.00
O2       0.22650    0.66180    0.77350   1.00
O2       0.16180    0.72650    0.77350   1.00
O2       0.22650    0.72650    0.83820   1.00
O2       0.33820    0.77350    0.77350   1.00
O2       0.27350    0.83820    0.77350   1.00
O2       0.27350    0.77350    0.83820   1.00
C1       0.25000    0.75000    0.64480   1.00
C1       0.25000    0.64480    0.75000   1.00
C1       0.35520    0.75000    0.75000   1.00
C1       0.14480    0.75000    0.75000   1.00
C1       0.25000    0.85520    0.75000   1.00
C1       0.25000    0.75000    0.85520   1.00
O1       0.91500    0.91500    0.91500   1.00
Zn1      0.88220    0.94780    0.94780   1.00
Zn1      0.94780    0.88220    0.94780   1.00
Zn1      0.94780    0.94780    0.88220   1.00
Zn1      0.88220    0.88220    0.88220   1.00
O2       0.89150    0.93850    1.00320   1.00
O2       0.89150    1.00320    0.93850   1.00
O2       0.82680    0.93850    0.93850   1.00
O2       0.93850    0.89150    1.00320   1.00
O2       1.00320    0.89150    0.93850   1.00
O2       0.93850    0.82680    0.93850   1.00
O2       0.93850    1.00320    0.89150   1.00
O2       1.00320    0.93850    0.89150   1.00
O2       0.93850    0.93850    0.82680   1.00
O2       0.82680    0.89150    0.89150   1.00
O2       0.89150    0.82680    0.89150   1.00
O2       0.89150    0.89150    0.82680   1.00
C1       0.91500    0.91500    1.02020   1.00
C1       0.91500    1.02020    0.91500   1.00
C1       0.80980    0.91500    0.91500   1.00
C1       1.02020    0.91500    0.91500   1.00
C1       0.91500    0.80980    0.91500   1.00
C1       0.91500    0.91500    0.80980   1.00
O1       0.41500    0.41500    0.91500   1.00
Zn1      0.38220    0.44780    0.94780   1.00
Zn1      0.44780    0.38220    0.94780   1.00
Zn1      0.44780    0.44780    0.88220   1.00
Zn1      0.38220    0.38220    0.88220   1.00
O2       0.39150    0.43850    1.00320   1.00
O2       0.39150    0.50320    0.93850   1.00
O2       0.32680    0.43850    0.93850   1.00
O2       0.43850    0.39150    1.00320   1.00
O2       0.50320    0.39150    0.93850   1.00
O2       0.43850    0.32680    0.93850   1.00
O2       0.43850    0.50320    0.89150   1.00
O2       0.50320    0.43850    0.89150   1.00
O2       0.43850    0.43850    0.82680   1.00
O2       0.32680    0.39150    0.89150   1.00
O2       0.39150    0.32680    0.89150   1.00
O2       0.39150    0.39150    0.82680   1.00
C1       0.41500    0.41500    1.02020   1.00
C1       0.41500    0.52020    0.91500   1.00
C1       0.30980    0.41500    0.91500   1.00
C1       0.52020    0.41500    0.91500   1.00
C1       0.41500    0.30980    0.91500   1.00
C1       0.41500    0.41500    0.80980   1.00
O1       0.41500    0.91500    0.41500   1.00
Zn1      0.38220    0.94780    0.44780   1.00
Zn1      0.44780    0.88220    0.44780   1.00
Zn1      0.44780    0.94780    0.38220   1.00
Zn1      0.38220    0.88220    0.38220   1.00
O2       0.39150    0.93850    0.50320   1.00
O2       0.39150    1.00320    0.43850   1.00
O2       0.32680    0.93850    0.43850   1.00
O2       0.43850    0.89150    0.50320   1.00
O2       0.50320    0.89150    0.43850   1.00
O2       0.43850    0.82680    0.43850   1.00
O2       0.43850    1.00320    0.39150   1.00
O2       0.50320    0.93850    0.39150   1.00
O2       0.43850    0.93850    0.32680   1.00
O2       0.32680    0.89150    0.39150   1.00
O2       0.39150    0.82680    0.39150   1.00
O2       0.39150    0.89150    0.32680   1.00
C1       0.41500    0.91500    0.52020   1.00
C1       0.41500    1.02020    0.41500   1.00
C1       0.30980    0.91500    0.41500   1.00
C1       0.52020    0.91500    0.41500   1.00
C1       0.41500    0.80980    0.41500   1.00
C1       0.41500    0.91500    0.30980   1.00
O1       0.91500    0.41500    0.41500   1.00
Zn1      0.88220    0.44780    0.44780   1.00
Zn1      0.94780    0.38220    0.44780   1.00
Zn1      0.94780    0.44780    0.38220   1.00
Zn1      0.88220    0.38220    0.38220   1.00
O2       0.89150    0.43850    0.50320   1.00
O2       0.89150    0.50320    0.43850   1.00
O2       0.82680    0.43850    0.43850   1.00
O2       0.93850    0.39150    0.50320   1.00
O2       1.00320    0.39150    0.43850   1.00
O2       0.93850    0.32680    0.43850   1.00
O2       0.93850    0.50320    0.39150   1.00
O2       1.00320    0.43850    0.39150   1.00
O2       0.93850    0.43850    0.32680   1.00
O2       0.82680    0.39150    0.39150   1.00
O2       0.89150    0.32680    0.39150   1.00
O2       0.89150    0.39150    0.32680   1.00
C1       0.91500    0.41500    0.52020   1.00
C1       0.91500    0.52020    0.41500   1.00
C1       0.80980    0.41500    0.41500   1.00
C1       1.02020    0.41500    0.41500   1.00
C1       0.91500    0.30980    0.41500   1.00
C1       0.91500    0.41500    0.30980   1.00
O1       0.41500    0.41500    0.41500   1.00
Zn1      0.44780    0.38220    0.38220   1.00
Zn1      0.38220    0.44780    0.38220   1.00
Zn1      0.38220    0.38220    0.44780   1.00
Zn1      0.44780    0.44780    0.44780   1.00
O2       0.43850    0.39150    0.32680   1.00
O2       0.43850    0.32680    0.39150   1.00
O2       0.50320    0.39150    0.39150   1.00
O2       0.39150    0.43850    0.32680   1.00
O2       0.32680    0.43850    0.39150   1.00
O2       0.39150    0.50320    0.39150   1.00
O2       0.39150    0.32680    0.43850   1.00
O2       0.32680    0.39150    0.43850   1.00
O2       0.39150    0.39150    0.50320   1.00
O2       0.50320    0.43850    0.43850   1.00
O2       0.43850    0.50320    0.43850   1.00
O2       0.43850    0.43850    0.50320   1.00
C1       0.41500    0.41500    0.30980   1.00
C1       0.41500    0.30980    0.41500   1.00
C1       0.52020    0.41500    0.41500   1.00
C1       0.30980    0.41500    0.41500   1.00
C1       0.41500    0.52020    0.41500   1.00
C1       0.41500    0.41500    0.52020   1.00
O1       0.91500    0.91500    0.41500   1.00
Zn1      0.94780    0.88220    0.38220   1.00
Zn1      0.88220    0.94780    0.38220   1.00
Zn1      0.88220    0.88220    0.44780   1.00
Zn1      0.94780    0.94780    0.44780   1.00
O2       0.93850    0.89150    0.32680   1.00
O2       0.93850    0.82680    0.39150   1.00
O2       1.00320    0.89150    0.39150   1.00
O2       0.89150    0.93850    0.32680   1.00
O2       0.82680    0.93850    0.39150   1.00
O2       0.89150    1.00320    0.39150   1.00
O2       0.89150    0.82680    0.43850   1.00
O2       0.82680    0.89150    0.43850   1.00
O2       0.89150    0.89150    0.50320   1.00
O2       1.00320    0.93850    0.43850   1.00
O2       0.93850    1.00320    0.43850   1.00
O2       0.93850    0.93850    0.50320   1.00
C1       0.91500    0.91500    0.30980   1.00
C1       0.91500    0.80980    0.41500   1.00
C1       1.02020    0.91500    0.41500   1.00
C1       0.80980    0.91500    0.41500   1.00
C1       0.91500    1.02020    0.41500   1.00
C1       0.91500    0.91500    0.52020   1.00
O1       0.91500    0.41500    0.91500   1.00
Zn1      0.94780    0.38220    0.88220   1.00
Zn1      0.88220    0.44780    0.88220   1.00
Zn1      0.88220    0.38220    0.94780   1.00
Zn1      0.94780    0.44780    0.94780   1.00
O2       0.93850    0.39150    0.82680   1.00
O2       0.93850    0.32680    0.89150   1.00
O2       1.00320    0.39150    0.89150   1.00
O2       0.89150    0.43850    0.82680   1.00
O2       0.82680    0.43850    0.89150   1.00
O2       0.89150    0.50320    0.89150   1.00
O2       0.89150    0.32680    0.93850   1.00
O2       0.82680    0.39150    0.93850   1.00
O2       0.89150    0.39150    1.00320   1.00
O2       1.00320    0.43850    0.93850   1.00
O2       0.93850    0.50320    0.93850   1.00
O2       0.93850    0.43850    1.00320   1.00
C1       0.91500    0.41500    0.80980   1.00
C1       0.91500    0.30980    0.91500   1.00
C1       1.02020    0.41500    0.91500   1.00
C1       0.80980    0.41500    0.91500   1.00
C1       0.91500    0.52020    0.91500   1.00
C1       0.91500    0.41500    1.02020   1.00
O1       0.41500    0.91500    0.91500   1.00
Zn1      0.44780    0.88220    0.88220   1.00
Zn1      0.38220    0.94780    0.88220   1.00
Zn1      0.38220    0.88220    0.94780   1.00
Zn1      0.44780    0.94780    0.94780   1.00
O2       0.43850    0.89150    0.82680   1.00
O2       0.43850    0.82680    0.89150   1.00
O2       0.50320    0.89150    0.89150   1.00
O2       0.39150    0.93850    0.82680   1.00
O2       0.32680    0.93850    0.89150   1.00
O2       0.39150    1.00320    0.89150   1.00
O2       0.39150    0.82680    0.93850   1.00
O2       0.32680    0.89150    0.93850   1.00
O2       0.39150    0.89150    1.00320   1.00
O2       0.50320    0.93850    0.93850   1.00
O2       0.43850    1.00320    0.93850   1.00
O2       0.43850    0.93850    1.00320   1.00
C1       0.41500    0.91500    0.80980   1.00
C1       0.41500    0.80980    0.91500   1.00
C1       0.52020    0.91500    0.91500   1.00
C1       0.30980    0.91500    0.91500   1.00
C1       0.41500    1.02020    0.91500   1.00
C1       0.41500    0.91500    1.02020   1.00
C2       0.75299    0.74995    0.89757   1.00
C3a      0.78288    0.73190    0.91884   1.00
H1       0.80689    0.71793    0.90369   1.00
C3a      0.72191    0.76802    0.91704   1.00
H1       0.69882    0.78196    0.90051   1.00
C3b      0.78203    0.73172    0.95938   1.00
C5       0.81464    0.71205    0.98144   1.00
H2       0.80277    0.68821    0.99984   1.00
H2       0.83682    0.69925    0.96161   1.00
H2       0.82955    0.73345    1.00060   1.00
C3b      0.72039    0.76824    0.95756   1.00
C5       0.68655    0.78793    0.97767   1.00
H2       0.69733    0.81179    0.99670   1.00
H2       0.66556    0.80071    0.95655   1.00
H2       0.67055    0.76655    0.99594   1.00
C4       0.75062    0.74999    0.97873   1.00
C4       0.74938    0.75001    1.02127   1.00
C3b      0.73054    0.71919    1.04101   1.00
C5       0.71148    0.68594    1.01937   1.00
H2       0.73340    0.67046    1.00129   1.00
H2       0.69809    0.66436    1.03949   1.00
H2       0.68819    0.69725    0.99995   1.00
C3b      0.76704    0.78086    1.04204   1.00
C5       0.78733    0.81408    1.02152   1.00
H2       0.76649    0.82954    1.00217   1.00
H2       0.79952    0.83569    1.04235   1.00
H2       0.81171    0.80275    1.00350   1.00
C3a      0.72955    0.71955    1.08155   1.00
H1       0.71514    0.69599    1.09700   1.00
C3a      0.76566    0.78054    1.08257   1.00
H1       0.77914    0.80411    1.09881   1.00
C2       0.74701    0.75005    1.10243   1.00
C2       0.74995    0.89757    0.75299   1.00
C3a      0.73190    0.91884    0.78288   1.00
H1       0.71793    0.90369    0.80689   1.00
C3a      0.76802    0.91704    0.72191   1.00
H1       0.78196    0.90051    0.69882   1.00
C3b      0.73172    0.95938    0.78203   1.00
C5       0.71205    0.98144    0.81464   1.00
H2       0.68821    0.99984    0.80277   1.00
H2       0.69925    0.96161    0.83682   1.00
H2       0.73345    1.00060    0.82955   1.00
C3b      0.76824    0.95756    0.72039   1.00
C5       0.78793    0.97767    0.68655   1.00
H2       0.81179    0.99670    0.69733   1.00
H2       0.80071    0.95655    0.66556   1.00
H2       0.76655    0.99594    0.67055   1.00
C4       0.74999    0.97873    0.75062   1.00
C4       0.75001    1.02127    0.74938   1.00
C3b      0.71919    1.04101    0.73054   1.00
C5       0.68594    1.01937    0.71148   1.00
H2       0.67046    1.00129    0.73340   1.00
H2       0.66436    1.03949    0.69809   1.00
H2       0.69725    0.99995    0.68819   1.00
C3b      0.78086    1.04204    0.76704   1.00
C5       0.81408    1.02152    0.78733   1.00
H2       0.82954    1.00217    0.76649   1.00
H2       0.83569    1.04235    0.79952   1.00
H2       0.80275    1.00350    0.81171   1.00
C3a      0.71955    1.08155    0.72955   1.00
H1       0.69599    1.09700    0.71514   1.00
C3a      0.78054    1.08257    0.76566   1.00
H1       0.80411    1.09881    0.77914   1.00
C2       0.75005    1.10243    0.74701   1.00
C2       0.60243    0.75299    0.75005   1.00
C3a      0.58116    0.78288    0.76810   1.00
H1       0.59631    0.80689    0.78207   1.00
C3a      0.58296    0.72191    0.73198   1.00
H1       0.59949    0.69882    0.71804   1.00
C3b      0.54062    0.78203    0.76828   1.00
C5       0.51856    0.81464    0.78795   1.00
H2       0.50016    0.80277    0.81179   1.00
H2       0.53839    0.83682    0.80075   1.00
H2       0.49940    0.82955    0.76655   1.00
C3b      0.54244    0.72039    0.73176   1.00
C5       0.52233    0.68655    0.71207   1.00
H2       0.50330    0.69733    0.68821   1.00
H2       0.54345    0.66556    0.69929   1.00
H2       0.50406    0.67055    0.73345   1.00
C4       0.52127    0.75062    0.75001   1.00
C4       0.47873    0.74938    0.74999   1.00
C3b      0.45899    0.73054    0.78081   1.00
C5       0.48063    0.71148    0.81406   1.00
H2       0.49871    0.73340    0.82954   1.00
H2       0.46051    0.69809    0.83564   1.00
H2       0.50005    0.68819    0.80275   1.00
C3b      0.45796    0.76704    0.71914   1.00
C5       0.47848    0.78733    0.68592   1.00
H2       0.49783    0.76649    0.67046   1.00
H2       0.45765    0.79952    0.66431   1.00
H2       0.49650    0.81171    0.69725   1.00
C3a      0.41845    0.72955    0.78045   1.00
H1       0.40300    0.71514    0.80401   1.00
C3a      0.41743    0.76566    0.71946   1.00
H1       0.40119    0.77914    0.69589   1.00
C2       0.39757    0.74701    0.74995   1.00
C2       0.89757    0.75299    0.74995   1.00
C3a      0.91884    0.78288    0.73190   1.00
H1       0.90369    0.80689    0.71793   1.00
C3a      0.91704    0.72191    0.76802   1.00
H1       0.90051    0.69882    0.78196   1.00
C3b      0.95938    0.78203    0.73172   1.00
C5       0.98144    0.81464    0.71205   1.00
H2       0.99984    0.80277    0.68821   1.00
H2       0.96161    0.83682    0.69925   1.00
H2       1.00060    0.82955    0.73345   1.00
C3b      0.95756    0.72039    0.76824   1.00
C5       0.97767    0.68655    0.78793   1.00
H2       0.99670    0.69733    0.81179   1.00
H2       0.95655    0.66556    0.80071   1.00
H2       0.99594    0.67055    0.76655   1.00
C4       0.97873    0.75062    0.74999   1.00
C4       1.02127    0.74938    0.75001   1.00
C3b      1.04101    0.73054    0.71919   1.00
C5       1.01937    0.71148    0.68594   1.00
H2       1.00129    0.73340    0.67046   1.00
H2       1.03949    0.69809    0.66436   1.00
H2       0.99995    0.68819    0.69725   1.00
C3b      1.04204    0.76704    0.78086   1.00
C5       1.02152    0.78733    0.81408   1.00
H2       1.00217    0.76649    0.82954   1.00
H2       1.04235    0.79952    0.83569   1.00
H2       1.00350    0.81171    0.80275   1.00
C3a      1.08155    0.72955    0.71955   1.00
H1       1.09700    0.71514    0.69599   1.00
C3a      1.08257    0.76566    0.78054   1.00
H1       1.09881    0.77914    0.80411   1.00
C2       1.10243    0.74701    0.75005   1.00
C2       0.75005    0.60243    0.75299   1.00
C3a      0.76810    0.58116    0.78288   1.00
H1       0.78207    0.59631    0.80689   1.00
C3a      0.73198    0.58296    0.72191   1.00
H1       0.71804    0.59949    0.69882   1.00
C3b      0.76828    0.54062    0.78203   1.00
C5       0.78795    0.51856    0.81464   1.00
H2       0.81179    0.50016    0.80277   1.00
H2       0.80075    0.53839    0.83682   1.00
H2       0.76655    0.49940    0.82955   1.00
C3b      0.73176    0.54244    0.72039   1.00
C5       0.71207    0.52233    0.68655   1.00
H2       0.68821    0.50330    0.69733   1.00
H2       0.69929    0.54345    0.66556   1.00
H2       0.73345    0.50406    0.67055   1.00
C4       0.75001    0.52127    0.75062   1.00
C4       0.74999    0.47873    0.74938   1.00
C3b      0.78081    0.45899    0.73054   1.00
C5       0.81406    0.48063    0.71148   1.00
H2       0.82954    0.49871    0.73340   1.00
H2       0.83564    0.46051    0.69809   1.00
H2       0.80275    0.50005    0.68819   1.00
C3b      0.71914    0.45796    0.76704   1.00
C5       0.68592    0.47848    0.78733   1.00
H2       0.67046    0.49783    0.76649   1.00
H2       0.66431    0.45765    0.79952   1.00
H2       0.69725    0.49650    0.81171   1.00
C3a      0.78045    0.41845    0.72955   1.00
H1       0.80401    0.40300    0.71514   1.00
C3a      0.71946    0.41743    0.76566   1.00
H1       0.69589    0.40119    0.77914   1.00
C2       0.74995    0.39757    0.74701   1.00
C2       0.75299    0.75005    0.60243   1.00
C3a      0.78288    0.76810    0.58116   1.00
H1       0.80689    0.78207    0.59631   1.00
C3a      0.72191    0.73198    0.58296   1.00
H1       0.69882    0.71804    0.59949   1.00
C3b      0.78203    0.76828    0.54062   1.00
C5       0.81464    0.78795    0.51856   1.00
H2       0.80277    0.81179    0.50016   1.00
H2       0.83682    0.80075    0.53839   1.00
H2       0.82955    0.76655    0.49940   1.00
C3b      0.72039    0.73176    0.54244   1.00
C5       0.68655    0.71207    0.52233   1.00
H2       0.69733    0.68821    0.50330   1.00
H2       0.66556    0.69929    0.54345   1.00
H2       0.67055    0.73345    0.50406   1.00
C4       0.75062    0.75001    0.52127   1.00
C4       0.74938    0.74999    0.47873   1.00
C3b      0.73054    0.78081    0.45899   1.00
C5       0.71148    0.81406    0.48063   1.00
H2       0.73340    0.82954    0.49871   1.00
H2       0.69809    0.83564    0.46051   1.00
H2       0.68819    0.80275    0.50005   1.00
C3b      0.76704    0.71914    0.45796   1.00
C5       0.78733    0.68592    0.47848   1.00
H2       0.76649    0.67046    0.49783   1.00
H2       0.79952    0.66431    0.45765   1.00
H2       0.81171    0.69725    0.49650   1.00
C3a      0.72955    0.78045    0.41845   1.00
H1       0.71514    0.80401    0.40300   1.00
C3a      0.76566    0.71946    0.41743   1.00
H1       0.77914    0.69589    0.40119   1.00
C2       0.74701    0.74995    0.39757   1.00
C2       0.25299    0.24995    0.89757   1.00
C3a      0.28288    0.23190    0.91884   1.00
H1       0.30689    0.21793    0.90369   1.00
C3a      0.22191    0.26802    0.91704   1.00
H1       0.19882    0.28196    0.90051   1.00
C3b      0.28203    0.23172    0.95938   1.00
C5       0.31464    0.21205    0.98144   1.00
H2       0.30277    0.18821    0.99984   1.00
H2       0.33682    0.19925    0.96161   1.00
H2       0.32955    0.23345    1.00060   1.00
C3b      0.22039    0.26824    0.95756   1.00
C5       0.18655    0.28793    0.97767   1.00
H2       0.19733    0.31179    0.99670   1.00
H2       0.16556    0.30071    0.95655   1.00
H2       0.17055    0.26655    0.99594   1.00
C4       0.25062    0.24999    0.97873   1.00
C4       0.24938    0.25001    1.02127   1.00
C3b      0.23054    0.21919    1.04101   1.00
C5       0.21148    0.18594    1.01937   1.00
H2       0.23340    0.17046    1.00129   1.00
H2       0.19809    0.16436    1.03949   1.00
H2       0.18819    0.19725    0.99995   1.00
C3b      0.26704    0.28086    1.04204   1.00
C5       0.28733    0.31408    1.02152   1.00
H2       0.26649    0.32954    1.00217   1.00
H2       0.29952    0.33569    1.04235   1.00
H2       0.31171    0.30275    1.00350   1.00
C3a      0.22955    0.21955    1.08155   1.00
H1       0.21514    0.19599    1.09700   1.00
C3a      0.26566    0.28054    1.08257   1.00
H1       0.27914    0.30411    1.09881   1.00
C2       0.24701    0.25005    1.10243   1.00
C2       0.24995    0.39757    0.75299   1.00
C3a      0.23190    0.41884    0.78288   1.00
H1       0.21793    0.40369    0.80689   1.00
C3a      0.26802    0.41704    0.72191   1.00
H1       0.28196    0.40051    0.69882   1.00
C3b      0.23172    0.45938    0.78203   1.00
C5       0.21205    0.48144    0.81464   1.00
H2       0.18821    0.49984    0.80277   1.00
H2       0.19925    0.46161    0.83682   1.00
H2       0.23345    0.50060    0.82955   1.00
C3b      0.26824    0.45756    0.72039   1.00
C5       0.28793    0.47767    0.68655   1.00
H2       0.31179    0.49670    0.69733   1.00
H2       0.30071    0.45655    0.66556   1.00
H2       0.26655    0.49594    0.67055   1.00
C4       0.24999    0.47873    0.75062   1.00
C4       0.25001    0.52127    0.74938   1.00
C3b      0.21919    0.54101    0.73054   1.00
C5       0.18594    0.51937    0.71148   1.00
H2       0.17046    0.50129    0.73340   1.00
H2       0.16436    0.53949    0.69809   1.00
H2       0.19725    0.49995    0.68819   1.00
C3b      0.28086    0.54204    0.76704   1.00
C5       0.31408    0.52152    0.78733   1.00
H2       0.32954    0.50217    0.76649   1.00
H2       0.33569    0.54235    0.79952   1.00
H2       0.30275    0.50350    0.81171   1.00
C3a      0.21955    0.58155    0.72955   1.00
H1       0.19599    0.59700    0.71514   1.00
C3a      0.28054    0.58257    0.76566   1.00
H1       0.30411    0.59881    0.77914   1.00
C2       0.25005    0.60243    0.74701   1.00
C2       0.10243    0.25299    0.75005   1.00
C3a      0.08116    0.28288    0.76810   1.00
H1       0.09631    0.30689    0.78207   1.00
C3a      0.08296    0.22191    0.73198   1.00
H1       0.09949    0.19882    0.71804   1.00
C3b      0.04062    0.28203    0.76828   1.00
C5       0.01856    0.31464    0.78795   1.00
H2       0.00016    0.30277    0.81179   1.00
H2       0.03839    0.33682    0.80075   1.00
H2       -0.00060   0.32955    0.76655   1.00
C3b      0.04244    0.22039    0.73176   1.00
C5       0.02233    0.18655    0.71207   1.00
H2       0.00330    0.19733    0.68821   1.00
H2       0.04345    0.16556    0.69929   1.00
H2       0.00406    0.17055    0.73345   1.00
C4       0.02127    0.25062    0.75001   1.00
C4       -0.02127   0.24938    0.74999   1.00
C3b      -0.04101   0.23054    0.78081   1.00
C5       -0.01937   0.21148    0.81406   1.00
H2       -0.00129   0.23340    0.82954   1.00
H2       -0.03949   0.19809    0.83564   1.00
H2       0.00005    0.18819    0.80275   1.00
C3b      -0.04204   0.26704    0.71914   1.00
C5       -0.02152   0.28733    0.68592   1.00
H2       -0.00217   0.26649    0.67046   1.00
H2       -0.04235   0.29952    0.66431   1.00
H2       -0.00350   0.31171    0.69725   1.00
C3a      -0.08155   0.22955    0.78045   1.00
H1       -0.09700   0.21514    0.80401   1.00
C3a      -0.08257   0.26566    0.71946   1.00
H1       -0.09881   0.27914    0.69589   1.00
C2       -0.10243   0.24701    0.74995   1.00
C2       0.39757    0.25299    0.74995   1.00
C3a      0.41884    0.28288    0.73190   1.00
H1       0.40369    0.30689    0.71793   1.00
C3a      0.41704    0.22191    0.76802   1.00
H1       0.40051    0.19882    0.78196   1.00
C3b      0.45938    0.28203    0.73172   1.00
C5       0.48144    0.31464    0.71205   1.00
H2       0.49984    0.30277    0.68821   1.00
H2       0.46161    0.33682    0.69925   1.00
H2       0.50060    0.32955    0.73345   1.00
C3b      0.45756    0.22039    0.76824   1.00
C5       0.47767    0.18655    0.78793   1.00
H2       0.49670    0.19733    0.81179   1.00
H2       0.45655    0.16556    0.80071   1.00
H2       0.49594    0.17055    0.76655   1.00
C4       0.47873    0.25062    0.74999   1.00
C4       0.52127    0.24938    0.75001   1.00
C3b      0.54101    0.23054    0.71919   1.00
C5       0.51937    0.21148    0.68594   1.00
H2       0.50129    0.23340    0.67046   1.00
H2       0.53949    0.19809    0.66436   1.00
H2       0.49995    0.18819    0.69725   1.00
C3b      0.54204    0.26704    0.78086   1.00
C5       0.52152    0.28733    0.81408   1.00
H2       0.50217    0.26649    0.82954   1.00
H2       0.54235    0.29952    0.83569   1.00
H2       0.50350    0.31171    0.80275   1.00
C3a      0.58155    0.22955    0.71955   1.00
H1       0.59700    0.21514    0.69599   1.00
C3a      0.58257    0.26566    0.78054   1.00
H1       0.59881    0.27914    0.80411   1.00
C2       0.60243    0.24701    0.75005   1.00
C2       0.25005    0.10243    0.75299   1.00
C3a      0.26810    0.08116    0.78288   1.00
H1       0.28207    0.09631    0.80689   1.00
C3a      0.23198    0.08296    0.72191   1.00
H1       0.21804    0.09949    0.69882   1.00
C3b      0.26828    0.04062    0.78203   1.00
C5       0.28795    0.01856    0.81464   1.00
H2       0.31179    0.00016    0.80277   1.00
H2       0.30075    0.03839    0.83682   1.00
H2       0.26655    -0.00060   0.82955   1.00
C3b      0.23176    0.04244    0.72039   1.00
C5       0.21207    0.02233    0.68655   1.00
H2       0.18821    0.00330    0.69733   1.00
H2       0.19929    0.04345    0.66556   1.00
H2       0.23345    0.00406    0.67055   1.00
C4       0.25001    0.02127    0.75062   1.00
C4       0.24999    -0.02127   0.74938   1.00
C3b      0.28081    -0.04101   0.73054   1.00
C5       0.31406    -0.01937   0.71148   1.00
H2       0.32954    -0.00129   0.73340   1.00
H2       0.33564    -0.03949   0.69809   1.00
H2       0.30275    0.00005    0.68819   1.00
C3b      0.21914    -0.04204   0.76704   1.00
C5       0.18592    -0.02152   0.78733   1.00
H2       0.17046    -0.00217   0.76649   1.00
H2       0.16431    -0.04235   0.79952   1.00
H2       0.19725    -0.00350   0.81171   1.00
C3a      0.28045    -0.08155   0.72955   1.00
H1       0.30401    -0.09700   0.71514   1.00
C3a      0.21946    -0.08257   0.76566   1.00
H1       0.19589    -0.09881   0.77914   1.00
C2       0.24995    -0.10243   0.74701   1.00
C2       0.25299    0.25005    0.60243   1.00
C3a      0.28288    0.26810    0.58116   1.00
H1       0.30689    0.28207    0.59631   1.00
C3a      0.22191    0.23198    0.58296   1.00
H1       0.19882    0.21804    0.59949   1.00
C3b      0.28203    0.26828    0.54062   1.00
C5       0.31464    0.28795    0.51856   1.00
H2       0.30277    0.31179    0.50016   1.00
H2       0.33682    0.30075    0.53839   1.00
H2       0.32955    0.26655    0.49940   1.00
C3b      0.22039    0.23176    0.54244   1.00
C5       0.18655    0.21207    0.52233   1.00
H2       0.19733    0.18821    0.50330   1.00
H2       0.16556    0.19929    0.54345   1.00
H2       0.17055    0.23345    0.50406   1.00
C4       0.25062    0.25001    0.52127   1.00
C4       0.24938    0.24999    0.47873   1.00
C3b      0.23054    0.28081    0.45899   1.00
C5       0.21148    0.31406    0.48063   1.00
H2       0.23340    0.32954    0.49871   1.00
H2       0.19809    0.33564    0.46051   1.00
H2       0.18819    0.30275    0.50005   1.00
C3b      0.26704    0.21914    0.45796   1.00
C5       0.28733    0.18592    0.47848   1.00
H2       0.26649    0.17046    0.49783   1.00
H2       0.29952    0.16431    0.45765   1.00
H2       0.31171    0.19725    0.49650   1.00
C3a      0.22955    0.28045    0.41845   1.00
H1       0.21514    0.30401    0.40300   1.00
C3a      0.26566    0.21946    0.41743   1.00
H1       0.27914    0.19589    0.40119   1.00
C2       0.24701    0.24995    0.39757   1.00
C2       0.25299    0.74995    0.39757   1.00
C3a      0.28288    0.73190    0.41884   1.00
H1       0.30689    0.71793    0.40369   1.00
C3a      0.22191    0.76802    0.41704   1.00
H1       0.19882    0.78196    0.40051   1.00
C3b      0.28203    0.73172    0.45938   1.00
C5       0.31464    0.71205    0.48144   1.00
H2       0.30277    0.68821    0.49984   1.00
H2       0.33682    0.69925    0.46161   1.00
H2       0.32955    0.73345    0.50060   1.00
C3b      0.22039    0.76824    0.45756   1.00
C5       0.18655    0.78793    0.47767   1.00
H2       0.19733    0.81179    0.49670   1.00
H2       0.16556    0.80071    0.45655   1.00
H2       0.17055    0.76655    0.49594   1.00
C4       0.25062    0.74999    0.47873   1.00
C4       0.24938    0.75001    0.52127   1.00
C3b      0.23054    0.71919    0.54101   1.00
C5       0.21148    0.68594    0.51937   1.00
H2       0.23340    0.67046    0.50129   1.00
H2       0.19809    0.66436    0.53949   1.00
H2       0.18819    0.69725    0.49995   1.00
C3b      0.26704    0.78086    0.54204   1.00
C5       0.28733    0.81408    0.52152   1.00
H2       0.26649    0.82954    0.50217   1.00
H2       0.29952    0.83569    0.54235   1.00
H2       0.31171    0.80275    0.50350   1.00
C3a      0.22955    0.71955    0.58155   1.00
H1       0.21514    0.69599    0.59700   1.00
C3a      0.26566    0.78054    0.58257   1.00
H1       0.27914    0.80411    0.59881   1.00
C2       0.24701    0.75005    0.60243   1.00
C2       0.24995    0.89757    0.25299   1.00
C3a      0.23190    0.91884    0.28288   1.00
H1       0.21793    0.90369    0.30689   1.00
C3a      0.26802    0.91704    0.22191   1.00
H1       0.28196    0.90051    0.19882   1.00
C3b      0.23172    0.95938    0.28203   1.00
C5       0.21205    0.98144    0.31464   1.00
H2       0.18821    0.99984    0.30277   1.00
H2       0.19925    0.96161    0.33682   1.00
H2       0.23345    1.00060    0.32955   1.00
C3b      0.26824    0.95756    0.22039   1.00
C5       0.28793    0.97767    0.18655   1.00
H2       0.31179    0.99670    0.19733   1.00
H2       0.30071    0.95655    0.16556   1.00
H2       0.26655    0.99594    0.17055   1.00
C4       0.24999    0.97873    0.25062   1.00
C4       0.25001    1.02127    0.24938   1.00
C3b      0.21919    1.04101    0.23054   1.00
C5       0.18594    1.01937    0.21148   1.00
H2       0.17046    1.00129    0.23340   1.00
H2       0.16436    1.03949    0.19809   1.00
H2       0.19725    0.99995    0.18819   1.00
C3b      0.28086    1.04204    0.26704   1.00
C5       0.31408    1.02152    0.28733   1.00
H2       0.32954    1.00217    0.26649   1.00
H2       0.33569    1.04235    0.29952   1.00
H2       0.30275    1.00350    0.31171   1.00
C3a      0.21955    1.08155    0.22955   1.00
H1       0.19599    1.09700    0.21514   1.00
C3a      0.28054    1.08257    0.26566   1.00
H1       0.30411    1.09881    0.27914   1.00
C2       0.25005    1.10243    0.24701   1.00
C2       0.10243    0.75299    0.25005   1.00
C3a      0.08116    0.78288    0.26810   1.00
H1       0.09631    0.80689    0.28207   1.00
C3a      0.08296    0.72191    0.23198   1.00
H1       0.09949    0.69882    0.21804   1.00
C3b      0.04062    0.78203    0.26828   1.00
C5       0.01856    0.81464    0.28795   1.00
H2       0.00016    0.80277    0.31179   1.00
H2       0.03839    0.83682    0.30075   1.00
H2       -0.00060   0.82955    0.26655   1.00
C3b      0.04244    0.72039    0.23176   1.00
C5       0.02233    0.68655    0.21207   1.00
H2       0.00330    0.69733    0.18821   1.00
H2       0.04345    0.66556    0.19929   1.00
H2       0.00406    0.67055    0.23345   1.00
C4       0.02127    0.75062    0.25001   1.00
C4       -0.02127   0.74938    0.24999   1.00
C3b      -0.04101   0.73054    0.28081   1.00
C5       -0.01937   0.71148    0.31406   1.00
H2       -0.00129   0.73340    0.32954   1.00
H2       -0.03949   0.69809    0.33564   1.00
H2       0.00005    0.68819    0.30275   1.00
C3b      -0.04204   0.76704    0.21914   1.00
C5       -0.02152   0.78733    0.18592   1.00
H2       -0.00217   0.76649    0.17046   1.00
H2       -0.04235   0.79952    0.16431   1.00
H2       -0.00350   0.81171    0.19725   1.00
C3a      -0.08155   0.72955    0.28045   1.00
H1       -0.09700   0.71514    0.30401   1.00
C3a      -0.08257   0.76566    0.21946   1.00
H1       -0.09881   0.77914    0.19589   1.00
C2       -0.10243   0.74701    0.24995   1.00
C2       0.39757    0.75299    0.24995   1.00
C3a      0.41884    0.78288    0.23190   1.00
H1       0.40369    0.80689    0.21793   1.00
C3a      0.41704    0.72191    0.26802   1.00
H1       0.40051    0.69882    0.28196   1.00
C3b      0.45938    0.78203    0.23172   1.00
C5       0.48144    0.81464    0.21205   1.00
H2       0.49984    0.80277    0.18821   1.00
H2       0.46161    0.83682    0.19925   1.00
H2       0.50060    0.82955    0.23345   1.00
C3b      0.45756    0.72039    0.26824   1.00
C5       0.47767    0.68655    0.28793   1.00
H2       0.49670    0.69733    0.31179   1.00
H2       0.45655    0.66556    0.30071   1.00
H2       0.49594    0.67055    0.26655   1.00
C4       0.47873    0.75062    0.24999   1.00
C4       0.52127    0.74938    0.25001   1.00
C3b      0.54101    0.73054    0.21919   1.00
C5       0.51937    0.71148    0.18594   1.00
H2       0.50129    0.73340    0.17046   1.00
H2       0.53949    0.69809    0.16436   1.00
H2       0.49995    0.68819    0.19725   1.00
C3b      0.54204    0.76704    0.28086   1.00
C5       0.52152    0.78733    0.31408   1.00
H2       0.50217    0.76649    0.32954   1.00
H2       0.54235    0.79952    0.33569   1.00
H2       0.50350    0.81171    0.30275   1.00
C3a      0.58155    0.72955    0.21955   1.00
H1       0.59700    0.71514    0.19599   1.00
C3a      0.58257    0.76566    0.28054   1.00
H1       0.59881    0.77914    0.30411   1.00
C2       0.60243    0.74701    0.25005   1.00
C2       0.25005    0.60243    0.25299   1.00
C3a      0.26810    0.58116    0.28288   1.00
H1       0.28207    0.59631    0.30689   1.00
C3a      0.23198    0.58296    0.22191   1.00
H1       0.21804    0.59949    0.19882   1.00
C3b      0.26828    0.54062    0.28203   1.00
C5       0.28795    0.51856    0.31464   1.00
H2       0.31179    0.50016    0.30277   1.00
H2       0.30075    0.53839    0.33682   1.00
H2       0.26655    0.49940    0.32955   1.00
C3b      0.23176    0.54244    0.22039   1.00
C5       0.21207    0.52233    0.18655   1.00
H2       0.18821    0.50330    0.19733   1.00
H2       0.19929    0.54345    0.16556   1.00
H2       0.23345    0.50406    0.17055   1.00
C4       0.25001    0.52127    0.25062   1.00
C4       0.24999    0.47873    0.24938   1.00
C3b      0.28081    0.45899    0.23054   1.00
C5       0.31406    0.48063    0.21148   1.00
H2       0.32954    0.49871    0.23340   1.00
H2       0.33564    0.46051    0.19809   1.00
H2       0.30275    0.50005    0.18819   1.00
C3b      0.21914    0.45796    0.26704   1.00
C5       0.18592    0.47848    0.28733   1.00
H2       0.17046    0.49783    0.26649   1.00
H2       0.16431    0.45765    0.29952   1.00
H2       0.19725    0.49650    0.31171   1.00
C3a      0.28045    0.41845    0.22955   1.00
H1       0.30401    0.40300    0.21514   1.00
C3a      0.21946    0.41743    0.26566   1.00
H1       0.19589    0.40119    0.27914   1.00
C2       0.24995    0.39757    0.24701   1.00
C2       0.25299    0.75005    0.10243   1.00
C3a      0.28288    0.76810    0.08116   1.00
H1       0.30689    0.78207    0.09631   1.00
C3a      0.22191    0.73198    0.08296   1.00
H1       0.19882    0.71804    0.09949   1.00
C3b      0.28203    0.76828    0.04062   1.00
C5       0.31464    0.78795    0.01856   1.00
H2       0.30277    0.81179    0.00016   1.00
H2       0.33682    0.80075    0.03839   1.00
H2       0.32955    0.76655    -0.00060   1.00
C3b      0.22039    0.73176    0.04244   1.00
C5       0.18655    0.71207    0.02233   1.00
H2       0.19733    0.68821    0.00330   1.00
H2       0.16556    0.69929    0.04345   1.00
H2       0.17055    0.73345    0.00406   1.00
C4       0.25062    0.75001    0.02127   1.00
C4       0.24938    0.74999    -0.02127   1.00
C3b      0.23054    0.78081    -0.04101   1.00
C5       0.21148    0.81406    -0.01937   1.00
H2       0.23340    0.82954    -0.00129   1.00
H2       0.19809    0.83564    -0.03949   1.00
H2       0.18819    0.80275    0.00005   1.00
C3b      0.26704    0.71914    -0.04204   1.00
C5       0.28733    0.68592    -0.02152   1.00
H2       0.26649    0.67046    -0.00217   1.00
H2       0.29952    0.66431    -0.04235   1.00
H2       0.31171    0.69725    -0.00350   1.00
C3a      0.22955    0.78045    -0.08155   1.00
H1       0.21514    0.80401    -0.09700   1.00
C3a      0.26566    0.71946    -0.08257   1.00
H1       0.27914    0.69589    -0.09881   1.00
C2       0.24701    0.74995    -0.10243   1.00
C2       0.75299    0.24995    0.39757   1.00
C3a      0.78288    0.23190    0.41884   1.00
H1       0.80689    0.21793    0.40369   1.00
C3a      0.72191    0.26802    0.41704   1.00
H1       0.69882    0.28196    0.40051   1.00
C3b      0.78203    0.23172    0.45938   1.00
C5       0.81464    0.21205    0.48144   1.00
H2       0.80277    0.18821    0.49984   1.00
H2       0.83682    0.19925    0.46161   1.00
H2       0.82955    0.23345    0.50060   1.00
C3b      0.72039    0.26824    0.45756   1.00
C5       0.68655    0.28793    0.47767   1.00
H2       0.69733    0.31179    0.49670   1.00
H2       0.66556    0.30071    0.45655   1.00
H2       0.67055    0.26655    0.49594   1.00
C4       0.75062    0.24999    0.47873   1.00
C4       0.74938    0.25001    0.52127   1.00
C3b      0.73054    0.21919    0.54101   1.00
C5       0.71148    0.18594    0.51937   1.00
H2       0.73340    0.17046    0.50129   1.00
H2       0.69809    0.16436    0.53949   1.00
H2       0.68819    0.19725    0.49995   1.00
C3b      0.76704    0.28086    0.54204   1.00
C5       0.78733    0.31408    0.52152   1.00
H2       0.76649    0.32954    0.50217   1.00
H2       0.79952    0.33569    0.54235   1.00
H2       0.81171    0.30275    0.50350   1.00
C3a      0.72955    0.21955    0.58155   1.00
H1       0.71514    0.19599    0.59700   1.00
C3a      0.76566    0.28054    0.58257   1.00
H1       0.77914    0.30411    0.59881   1.00
C2       0.74701    0.25005    0.60243   1.00
C2       0.74995    0.39757    0.25299   1.00
C3a      0.73190    0.41884    0.28288   1.00
H1       0.71793    0.40369    0.30689   1.00
C3a      0.76802    0.41704    0.22191   1.00
H1       0.78196    0.40051    0.19882   1.00
C3b      0.73172    0.45938    0.28203   1.00
C5       0.71205    0.48144    0.31464   1.00
H2       0.68821    0.49984    0.30277   1.00
H2       0.69925    0.46161    0.33682   1.00
H2       0.73345    0.50060    0.32955   1.00
C3b      0.76824    0.45756    0.22039   1.00
C5       0.78793    0.47767    0.18655   1.00
H2       0.81179    0.49670    0.19733   1.00
H2       0.80071    0.45655    0.16556   1.00
H2       0.76655    0.49594    0.17055   1.00
C4       0.74999    0.47873    0.25062   1.00
C4       0.75001    0.52127    0.24938   1.00
C3b      0.71919    0.54101    0.23054   1.00
C5       0.68594    0.51937    0.21148   1.00
H2       0.67046    0.50129    0.23340   1.00
H2       0.66436    0.53949    0.19809   1.00
H2       0.69725    0.49995    0.18819   1.00
C3b      0.78086    0.54204    0.26704   1.00
C5       0.81408    0.52152    0.28733   1.00
H2       0.82954    0.50217    0.26649   1.00
H2       0.83569    0.54235    0.29952   1.00
H2       0.80275    0.50350    0.31171   1.00
C3a      0.71955    0.58155    0.22955   1.00
H1       0.69599    0.59700    0.21514   1.00
C3a      0.78054    0.58257    0.26566   1.00
H1       0.80411    0.59881    0.27914   1.00
C2       0.75005    0.60243    0.24701   1.00
C2       0.60243    0.25299    0.25005   1.00
C3a      0.58116    0.28288    0.26810   1.00
H1       0.59631    0.30689    0.28207   1.00
C3a      0.58296    0.22191    0.23198   1.00
H1       0.59949    0.19882    0.21804   1.00
C3b      0.54062    0.28203    0.26828   1.00
C5       0.51856    0.31464    0.28795   1.00
H2       0.50016    0.30277    0.31179   1.00
H2       0.53839    0.33682    0.30075   1.00
H2       0.49940    0.32955    0.26655   1.00
C3b      0.54244    0.22039    0.23176   1.00
C5       0.52233    0.18655    0.21207   1.00
H2       0.50330    0.19733    0.18821   1.00
H2       0.54345    0.16556    0.19929   1.00
H2       0.50406    0.17055    0.23345   1.00
C4       0.52127    0.25062    0.25001   1.00
C4       0.47873    0.24938    0.24999   1.00
C3b      0.45899    0.23054    0.28081   1.00
C5       0.48063    0.21148    0.31406   1.00
H2       0.49871    0.23340    0.32954   1.00
H2       0.46051    0.19809    0.33564   1.00
H2       0.50005    0.18819    0.30275   1.00
C3b      0.45796    0.26704    0.21914   1.00
C5       0.47848    0.28733    0.18592   1.00
H2       0.49783    0.26649    0.17046   1.00
H2       0.45765    0.29952    0.16431   1.00
H2       0.49650    0.31171    0.19725   1.00
C3a      0.41845    0.22955    0.28045   1.00
H1       0.40300    0.21514    0.30401   1.00
C3a      0.41743    0.26566    0.21946   1.00
H1       0.40119    0.27914    0.19589   1.00
C2       0.39757    0.24701    0.24995   1.00
C2       0.89757    0.25299    0.24995   1.00
C3a      0.91884    0.28288    0.23190   1.00
H1       0.90369    0.30689    0.21793   1.00
C3a      0.91704    0.22191    0.26802   1.00
H1       0.90051    0.19882    0.28196   1.00
C3b      0.95938    0.28203    0.23172   1.00
C5       0.98144    0.31464    0.21205   1.00
H2       0.99984    0.30277    0.18821   1.00
H2       0.96161    0.33682    0.19925   1.00
H2       1.00060    0.32955    0.23345   1.00
C3b      0.95756    0.22039    0.26824   1.00
C5       0.97767    0.18655    0.28793   1.00
H2       0.99670    0.19733    0.31179   1.00
H2       0.95655    0.16556    0.30071   1.00
H2       0.99594    0.17055    0.26655   1.00
C4       0.97873    0.25062    0.24999   1.00
C4       1.02127    0.24938    0.25001   1.00
C3b      1.04101    0.23054    0.21919   1.00
C5       1.01937    0.21148    0.18594   1.00
H2       1.00129    0.23340    0.17046   1.00
H2       1.03949    0.19809    0.16436   1.00
H2       0.99995    0.18819    0.19725   1.00
C3b      1.04204    0.26704    0.28086   1.00
C5       1.02152    0.28733    0.31408   1.00
H2       1.00217    0.26649    0.32954   1.00
H2       1.04235    0.29952    0.33569   1.00
H2       1.00350    0.31171    0.30275   1.00
C3a      1.08155    0.22955    0.21955   1.00
H1       1.09700    0.21514    0.19599   1.00
C3a      1.08257    0.26566    0.28054   1.00
H1       1.09881    0.27914    0.30411   1.00
C2       1.10243    0.24701    0.25005   1.00
C2       0.75005    0.10243    0.25299   1.00
C3a      0.76810    0.08116    0.28288   1.00
H1       0.78207    0.09631    0.30689   1.00
C3a      0.73198    0.08296    0.22191   1.00
H1       0.71804    0.09949    0.19882   1.00
C3b      0.76828    0.04062    0.28203   1.00
C5       0.78795    0.01856    0.31464   1.00
H2       0.81179    0.00016    0.30277   1.00
H2       0.80075    0.03839    0.33682   1.00
H2       0.76655    -0.00060   0.32955   1.00
C3b      0.73176    0.04244    0.22039   1.00
C5       0.71207    0.02233    0.18655   1.00
H2       0.68821    0.00330    0.19733   1.00
H2       0.69929    0.04345    0.16556   1.00
H2       0.73345    0.00406    0.17055   1.00
C4       0.75001    0.02127    0.25062   1.00
C4       0.74999    -0.02127   0.24938   1.00
C3b      0.78081    -0.04101   0.23054   1.00
C5       0.81406    -0.01937   0.21148   1.00
H2       0.82954    -0.00129   0.23340   1.00
H2       0.83564    -0.03949   0.19809   1.00
H2       0.80275    0.00005    0.18819   1.00
C3b      0.71914    -0.04204   0.26704   1.00
C5       0.68592    -0.02152   0.28733   1.00
H2       0.67046    -0.00217   0.26649   1.00
H2       0.66431    -0.04235   0.29952   1.00
H2       0.69725    -0.00350   0.31171   1.00
C3a      0.78045    -0.08155   0.22955   1.00
H1       0.80401    -0.09700   0.21514   1.00
C3a      0.71946    -0.08257   0.26566   1.00
H1       0.69589    -0.09881   0.27914   1.00
C2       0.74995    -0.10243   0.24701   1.00
C2       0.75299    0.25005    0.10243   1.00
C3a      0.78288    0.26810    0.08116   1.00
H1       0.80689    0.28207    0.09631   1.00
C3a      0.72191    0.23198    0.08296   1.00
H1       0.69882    0.21804    0.09949   1.00
C3b      0.78203    0.26828    0.04062   1.00
C5       0.81464    0.28795    0.01856   1.00
H2       0.80277    0.31179    0.00016   1.00
H2       0.83682    0.30075    0.03839   1.00
H2       0.82955    0.26655    -0.00060   1.00
C3b      0.72039    0.23176    0.04244   1.00
C5       0.68655    0.21207    0.02233   1.00
H2       0.69733    0.18821    0.00330   1.00
H2       0.66556    0.19929    0.04345   1.00
H2       0.67055    0.23345    0.00406   1.00
C4       0.75062    0.25001    0.02127   1.00
C4       0.74938    0.24999    -0.02127   1.00
C3b      0.73054    0.28081    -0.04101   1.00
C5       0.71148    0.31406    -0.01937   1.00
H2       0.73340    0.32954    -0.00129   1.00
H2       0.69809    0.33564    -0.03949   1.00
H2       0.68819    0.30275    0.00005   1.00
C3b      0.76704    0.21914    -0.04204   1.00
C5       0.78733    0.18592    -0.02152   1.00
H2       0.76649    0.17046    -0.00217   1.00
H2       0.79952    0.16431    -0.04235   1.00
H2       0.81171    0.19725    -0.00350   1.00
C3a      0.72955    0.28045    -0.08155   1.00
H1       0.71514    0.30401    -0.09700   1.00
C3a      0.76566    0.21946    -0.08257   1.00
H1       0.77914    0.19589    -0.09881   1.00
C2       0.74701    0.24995    -0.10243   1.00
C2       0.91799    0.91495    1.06257   1.00
C3a      0.94788    0.89690    1.08384   1.00
H1       0.97189    0.88293    1.06869   1.00
C3a      0.88691    0.93302    1.08204   1.00
H1       0.86382    0.94696    1.06551   1.00
C3b      0.94703    0.89672    1.12438   1.00
C5       0.97964    0.87705    1.14644   1.00
H2       0.96777    0.85321    1.16484   1.00
H2       1.00182    0.86425    1.12661   1.00
H2       0.99455    0.89845    1.16560   1.00
C3b      0.88539    0.93324    1.12256   1.00
C5       0.85155    0.95293    1.14267   1.00
H2       0.86233    0.97679    1.16170   1.00
H2       0.83056    0.96571    1.12155   1.00
H2       0.83555    0.93155    1.16094   1.00
C4       0.91562    0.91499    1.14373   1.00
C4       0.91438    0.91501    1.18627   1.00
C3b      0.89554    0.88419    1.20601   1.00
C5       0.87648    0.85094    1.18437   1.00
H2       0.89840    0.83546    1.16629   1.00
H2       0.86309    0.82936    1.20449   1.00
H2       0.85319    0.86225    1.16495   1.00
C3b      0.93204    0.94586    1.20704   1.00
C5       0.95233    0.97908    1.18652   1.00
H2       0.93149    0.99454    1.16717   1.00
H2       0.96452    1.00069    1.20735   1.00
H2       0.97671    0.96775    1.16850   1.00
C3a      0.89455    0.88455    1.24655   1.00
H1       0.88014    0.86099    1.26200   1.00
C3a      0.93066    0.94554    1.24757   1.00
H1       0.94414    0.96911    1.26381   1.00
C2       0.91201    0.91505    1.26743   1.00
C2       0.91495    1.06257    0.91799   1.00
C3a      0.89690    1.08384    0.94788   1.00
H1       0.88293    1.06869    0.97189   1.00
C3a      0.93302    1.08204    0.88691   1.00
H1       0.94696    1.06551    0.86382   1.00
C3b      0.89672    1.12438    0.94703   1.00
C5       0.87705    1.14644    0.97964   1.00
H2       0.85321    1.16484    0.96777   1.00
H2       0.86425    1.12661    1.00182   1.00
H2       0.89845    1.16560    0.99455   1.00
C3b      0.93324    1.12256    0.88539   1.00
C5       0.95293    1.14267    0.85155   1.00
H2       0.97679    1.16170    0.86233   1.00
H2       0.96571    1.12155    0.83056   1.00
H2       0.93155    1.16094    0.83555   1.00
C4       0.91499    1.14373    0.91562   1.00
C4       0.91501    1.18627    0.91438   1.00
C3b      0.88419    1.20601    0.89554   1.00
C5       0.85094    1.18437    0.87648   1.00
H2       0.83546    1.16629    0.89840   1.00
H2       0.82936    1.20449    0.86309   1.00
H2       0.86225    1.16495    0.85319   1.00
C3b      0.94586    1.20704    0.93204   1.00
C5       0.97908    1.18652    0.95233   1.00
H2       0.99454    1.16717    0.93149   1.00
H2       1.00069    1.20735    0.96452   1.00
H2       0.96775    1.16850    0.97671   1.00
C3a      0.88455    1.24655    0.89455   1.00
H1       0.86099    1.26200    0.88014   1.00
C3a      0.94554    1.24757    0.93066   1.00
H1       0.96911    1.26381    0.94414   1.00
C2       0.91505    1.26743    0.91201   1.00
C2       0.76743    0.91799    0.91505   1.00
C3a      0.74616    0.94788    0.93310   1.00
H1       0.76131    0.97189    0.94707   1.00
C3a      0.74796    0.88691    0.89698   1.00
H1       0.76449    0.86382    0.88304   1.00
C3b      0.70562    0.94703    0.93328   1.00
C5       0.68356    0.97964    0.95295   1.00
H2       0.66516    0.96777    0.97679   1.00
H2       0.70339    1.00182    0.96575   1.00
H2       0.66440    0.99455    0.93155   1.00
C3b      0.70744    0.88539    0.89676   1.00
C5       0.68733    0.85155    0.87707   1.00
H2       0.66830    0.86233    0.85321   1.00
H2       0.70845    0.83056    0.86429   1.00
H2       0.66906    0.83555    0.89845   1.00
C4       0.68627    0.91562    0.91501   1.00
C4       0.64373    0.91438    0.91499   1.00
C3b      0.62399    0.89554    0.94581   1.00
C5       0.64563    0.87648    0.97906   1.00
H2       0.66371    0.89840    0.99454   1.00
H2       0.62551    0.86309    1.00064   1.00
H2       0.66505    0.85319    0.96775   1.00
C3b      0.62296    0.93204    0.88414   1.00
C5       0.64348    0.95233    0.85092   1.00
H2       0.66283    0.93149    0.83546   1.00
H2       0.62265    0.96452    0.82931   1.00
H2       0.66150    0.97671    0.86225   1.00
C3a      0.58345    0.89455    0.94545   1.00
H1       0.56800    0.88014    0.96901   1.00
C3a      0.58243    0.93066    0.88446   1.00
H1       0.56619    0.94414    0.86089   1.00
C2       0.56257    0.91201    0.91495   1.00
C2       1.06257    0.91799    0.91495   1.00
C3a      1.08384    0.94788    0.89690   1.00
H1       1.06869    0.97189    0.88293   1.00
C3a      1.08204    0.88691    0.93302   1.00
H1       1.06551    0.86382    0.94696   1.00
C3b      1.12438    0.94703    0.89672   1.00
C5       1.14644    0.97964    0.87705   1.00
H2       1.16484    0.96777    0.85321   1.00
H2       1.12661    1.00182    0.86425   1.00
H2       1.16560    0.99455    0.89845   1.00
C3b      1.12256    0.88539    0.93324   1.00
C5       1.14267    0.85155    0.95293   1.00
H2       1.16170    0.86233    0.97679   1.00
H2       1.12155    0.83056    0.96571   1.00
H2       1.16094    0.83555    0.93155   1.00
C4       1.14373    0.91562    0.91499   1.00
C4       1.18627    0.91438    0.91501   1.00
C3b      1.20601    0.89554    0.88419   1.00
C5       1.18437    0.87648    0.85094   1.00
H2       1.16629    0.89840    0.83546   1.00
H2       1.20449    0.86309    0.82936   1.00
H2       1.16495    0.85319    0.86225   1.00
C3b      1.20704    0.93204    0.94586   1.00
C5       1.18652    0.95233    0.97908   1.00
H2       1.16717    0.93149    0.99454   1.00
H2       1.20735    0.96452    1.00069   1.00
H2       1.16850    0.97671    0.96775   1.00
C3a      1.24655    0.89455    0.88455   1.00
H1       1.26200    0.88014    0.86099   1.00
C3a      1.24757    0.93066    0.94554   1.00
H1       1.26381    0.94414    0.96911   1.00
C2       1.26743    0.91201    0.91505   1.00
C2       0.91505    0.76743    0.91799   1.00
C3a      0.93310    0.74616    0.94788   1.00
H1       0.94707    0.76131    0.97189   1.00
C3a      0.89698    0.74796    0.88691   1.00
H1       0.88304    0.76449    0.86382   1.00
C3b      0.93328    0.70562    0.94703   1.00
C5       0.95295    0.68356    0.97964   1.00
H2       0.97679    0.66516    0.96777   1.00
H2       0.96575    0.70339    1.00182   1.00
H2       0.93155    0.66440    0.99455   1.00
C3b      0.89676    0.70744    0.88539   1.00
C5       0.87707    0.68733    0.85155   1.00
H2       0.85321    0.66830    0.86233   1.00
H2       0.86429    0.70845    0.83056   1.00
H2       0.89845    0.66906    0.83555   1.00
C4       0.91501    0.68627    0.91562   1.00
C4       0.91499    0.64373    0.91438   1.00
C3b      0.94581    0.62399    0.89554   1.00
C5       0.97906    0.64563    0.87648   1.00
H2       0.99454    0.66371    0.89840   1.00
H2       1.00064    0.62551    0.86309   1.00
H2       0.96775    0.66505    0.85319   1.00
C3b      0.88414    0.62296    0.93204   1.00
C5       0.85092    0.64348    0.95233   1.00
H2       0.83546    0.66283    0.93149   1.00
H2       0.82931    0.62265    0.96452   1.00
H2       0.86225    0.66150    0.97671   1.00
C3a      0.94545    0.58345    0.89455   1.00
H1       0.96901    0.56800    0.88014   1.00
C3a      0.88446    0.58243    0.93066   1.00
H1       0.86089    0.56619    0.94414   1.00
C2       0.91495    0.56257    0.91201   1.00
C2       0.91799    0.91505    0.76743   1.00
C3a      0.94788    0.93310    0.74616   1.00
H1       0.97189    0.94707    0.76131   1.00
C3a      0.88691    0.89698    0.74796   1.00
H1       0.86382    0.88304    0.76449   1.00
C3b      0.94703    0.93328    0.70562   1.00
C5       0.97964    0.95295    0.68356   1.00
H2       0.96777    0.97679    0.66516   1.00
H2       1.00182    0.96575    0.70339   1.00
H2       0.99455    0.93155    0.66440   1.00
C3b      0.88539    0.89676    0.70744   1.00
C5       0.85155    0.87707    0.68733   1.00
H2       0.86233    0.85321    0.66830   1.00
H2       0.83056    0.86429    0.70845   1.00
H2       0.83555    0.89845    0.66906   1.00
C4       0.91562    0.91501    0.68627   1.00
C4       0.91438    0.91499    0.64373   1.00
C3b      0.89554    0.94581    0.62399   1.00
C5       0.87648    0.97906    0.64563   1.00
H2       0.89840    0.99454    0.66371   1.00
H2       0.86309    1.00064    0.62551   1.00
H2       0.85319    0.96775    0.66505   1.00
C3b      0.93204    0.88414    0.62296   1.00
C5       0.95233    0.85092    0.64348   1.00
H2       0.93149    0.83546    0.66283   1.00
H2       0.96452    0.82931    0.62265   1.00
H2       0.97671    0.86225    0.66150   1.00
C3a      0.89455    0.94545    0.58345   1.00
H1       0.88014    0.96901    0.56800   1.00
C3a      0.93066    0.88446    0.58243   1.00
H1       0.94414    0.86089    0.56619   1.00
C2       0.91201    0.91495    0.56257   1.00
C2       0.41799    0.41495    1.06257   1.00
C3a      0.44788    0.39690    1.08384   1.00
H1       0.47189    0.38293    1.06869   1.00
C3a      0.38691    0.43302    1.08204   1.00
H1       0.36382    0.44696    1.06551   1.00
C3b      0.44703    0.39672    1.12438   1.00
C5       0.47964    0.37705    1.14644   1.00
H2       0.46777    0.35321    1.16484   1.00
H2       0.50182    0.36425    1.12661   1.00
H2       0.49455    0.39845    1.16560   1.00
C3b      0.38539    0.43324    1.12256   1.00
C5       0.35155    0.45293    1.14267   1.00
H2       0.36233    0.47679    1.16170   1.00
H2       0.33056    0.46571    1.12155   1.00
H2       0.33555    0.43155    1.16094   1.00
C4       0.41562    0.41499    1.14373   1.00
C4       0.41438    0.41501    1.18627   1.00
C3b      0.39554    0.38419    1.20601   1.00
C5       0.37648    0.35094    1.18437   1.00
H2       0.39840    0.33546    1.16629   1.00
H2       0.36309    0.32936    1.20449   1.00
H2       0.35319    0.36225    1.16495   1.00
C3b      0.43204    0.44586    1.20704   1.00
C5       0.45233    0.47908    1.18652   1.00
H2       0.43149    0.49454    1.16717   1.00
H2       0.46452    0.50069    1.20735   1.00
H2       0.47671    0.46775    1.16850   1.00
C3a      0.39455    0.38455    1.24655   1.00
H1       0.38014    0.36099    1.26200   1.00
C3a      0.43066    0.44554    1.24757   1.00
H1       0.44414    0.46911    1.26381   1.00
C2       0.41201    0.41505    1.26743   1.00
C2       0.41495    0.56257    0.91799   1.00
C3a      0.39690    0.58384    0.94788   1.00
H1       0.38293    0.56869    0.97189   1.00
C3a      0.43302    0.58204    0.88691   1.00
H1       0.44696    0.56551    0.86382   1.00
C3b      0.39672    0.62438    0.94703   1.00
C5       0.37705    0.64644    0.97964   1.00
H2       0.35321    0.66484    0.96777   1.00
H2       0.36425    0.62661    1.00182   1.00
H2       0.39845    0.66560    0.99455   1.00
C3b      0.43324    0.62256    0.88539   1.00
C5       0.45293    0.64267    0.85155   1.00
H2       0.47679    0.66170    0.86233   1.00
H2       0.46571    0.62155    0.83056   1.00
H2       0.43155    0.66094    0.83555   1.00
C4       0.41499    0.64373    0.91562   1.00
C4       0.41501    0.68627    0.91438   1.00
C3b      0.38419    0.70601    0.89554   1.00
C5       0.35094    0.68437    0.87648   1.00
H2       0.33546    0.66629    0.89840   1.00
H2       0.32936    0.70449    0.86309   1.00
H2       0.36225    0.66495    0.85319   1.00
C3b      0.44586    0.70704    0.93204   1.00
C5       0.47908    0.68652    0.95233   1.00
H2       0.49454    0.66717    0.93149   1.00
H2       0.50069    0.70735    0.96452   1.00
H2       0.46775    0.66850    0.97671   1.00
C3a      0.38455    0.74655    0.89455   1.00
H1       0.36099    0.76200    0.88014   1.00
C3a      0.44554    0.74757    0.93066   1.00
H1       0.46911    0.76381    0.94414   1.00
C2       0.41505    0.76743    0.91201   1.00
C2       0.26743    0.41799    0.91505   1.00
C3a      0.24616    0.44788    0.93310   1.00
H1       0.26131    0.47189    0.94707   1.00
C3a      0.24796    0.38691    0.89698   1.00
H1       0.26449    0.36382    0.88304   1.00
C3b      0.20562    0.44703    0.93328   1.00
C5       0.18356    0.47964    0.95295   1.00
H2       0.16516    0.46777    0.97679   1.00
H2       0.20339    0.50182    0.96575   1.00
H2       0.16440    0.49455    0.93155   1.00
C3b      0.20744    0.38539    0.89676   1.00
C5       0.18733    0.35155    0.87707   1.00
H2       0.16830    0.36233    0.85321   1.00
H2       0.20845    0.33056    0.86429   1.00
H2       0.16906    0.33555    0.89845   1.00
C4       0.18627    0.41562    0.91501   1.00
C4       0.14373    0.41438    0.91499   1.00
C3b      0.12399    0.39554    0.94581   1.00
C5       0.14563    0.37648    0.97906   1.00
H2       0.16371    0.39840    0.99454   1.00
H2       0.12551    0.36309    1.00064   1.00
H2       0.16505    0.35319    0.96775   1.00
C3b      0.12296    0.43204    0.88414   1.00
C5       0.14348    0.45233    0.85092   1.00
H2       0.16283    0.43149    0.83546   1.00
H2       0.12265    0.46452    0.82931   1.00
H2       0.16150    0.47671    0.86225   1.00
C3a      0.08345    0.39455    0.94545   1.00
H1       0.06800    0.38014    0.96901   1.00
C3a      0.08243    0.43066    0.88446   1.00
H1       0.06619    0.44414    0.86089   1.00
C2       0.06257    0.41201    0.91495   1.00
C2       0.56257    0.41799    0.91495   1.00
C3a      0.58384    0.44788    0.89690   1.00
H1       0.56869    0.47189    0.88293   1.00
C3a      0.58204    0.38691    0.93302   1.00
H1       0.56551    0.36382    0.94696   1.00
C3b      0.62438    0.44703    0.89672   1.00
C5       0.64644    0.47964    0.87705   1.00
H2       0.66484    0.46777    0.85321   1.00
H2       0.62661    0.50182    0.86425   1.00
H2       0.66560    0.49455    0.89845   1.00
C3b      0.62256    0.38539    0.93324   1.00
C5       0.64267    0.35155    0.95293   1.00
H2       0.66170    0.36233    0.97679   1.00
H2       0.62155    0.33056    0.96571   1.00
H2       0.66094    0.33555    0.93155   1.00
C4       0.64373    0.41562    0.91499   1.00
C4       0.68627    0.41438    0.91501   1.00
C3b      0.70601    0.39554    0.88419   1.00
C5       0.68437    0.37648    0.85094   1.00
H2       0.66629    0.39840    0.83546   1.00
H2       0.70449    0.36309    0.82936   1.00
H2       0.66495    0.35319    0.86225   1.00
C3b      0.70704    0.43204    0.94586   1.00
C5       0.68652    0.45233    0.97908   1.00
H2       0.66717    0.43149    0.99454   1.00
H2       0.70735    0.46452    1.00069   1.00
H2       0.66850    0.47671    0.96775   1.00
C3a      0.74655    0.39455    0.88455   1.00
H1       0.76200    0.38014    0.86099   1.00
C3a      0.74757    0.43066    0.94554   1.00
H1       0.76381    0.44414    0.96911   1.00
C2       0.76743    0.41201    0.91505   1.00
C2       0.41505    0.26743    0.91799   1.00
C3a      0.43310    0.24616    0.94788   1.00
H1       0.44707    0.26131    0.97189   1.00
C3a      0.39698    0.24796    0.88691   1.00
H1       0.38304    0.26449    0.86382   1.00
C3b      0.43328    0.20562    0.94703   1.00
C5       0.45295    0.18356    0.97964   1.00
H2       0.47679    0.16516    0.96777   1.00
H2       0.46575    0.20339    1.00182   1.00
H2       0.43155    0.16440    0.99455   1.00
C3b      0.39676    0.20744    0.88539   1.00
C5       0.37707    0.18733    0.85155   1.00
H2       0.35321    0.16830    0.86233   1.00
H2       0.36429    0.20845    0.83056   1.00
H2       0.39845    0.16906    0.83555   1.00
C4       0.41501    0.18627    0.91562   1.00
C4       0.41499    0.14373    0.91438   1.00
C3b      0.44581    0.12399    0.89554   1.00
C5       0.47906    0.14563    0.87648   1.00
H2       0.49454    0.16371    0.89840   1.00
H2       0.50064    0.12551    0.86309   1.00
H2       0.46775    0.16505    0.85319   1.00
C3b      0.38414    0.12296    0.93204   1.00
C5       0.35092    0.14348    0.95233   1.00
H2       0.33546    0.16283    0.93149   1.00
H2       0.32931    0.12265    0.96452   1.00
H2       0.36225    0.16150    0.97671   1.00
C3a      0.44545    0.08345    0.89455   1.00
H1       0.46901    0.06800    0.88014   1.00
C3a      0.38446    0.08243    0.93066   1.00
H1       0.36089    0.06619    0.94414   1.00
C2       0.41495    0.06257    0.91201   1.00
C2       0.41799    0.41505    0.76743   1.00
C3a      0.44788    0.43310    0.74616   1.00
H1       0.47189    0.44707    0.76131   1.00
C3a      0.38691    0.39698    0.74796   1.00
H1       0.36382    0.38304    0.76449   1.00
C3b      0.44703    0.43328    0.70562   1.00
C5       0.47964    0.45295    0.68356   1.00
H2       0.46777    0.47679    0.66516   1.00
H2       0.50182    0.46575    0.70339   1.00
H2       0.49455    0.43155    0.66440   1.00
C3b      0.38539    0.39676    0.70744   1.00
C5       0.35155    0.37707    0.68733   1.00
H2       0.36233    0.35321    0.66830   1.00
H2       0.33056    0.36429    0.70845   1.00
H2       0.33555    0.39845    0.66906   1.00
C4       0.41562    0.41501    0.68627   1.00
C4       0.41438    0.41499    0.64373   1.00
C3b      0.39554    0.44581    0.62399   1.00
C5       0.37648    0.47906    0.64563   1.00
H2       0.39840    0.49454    0.66371   1.00
H2       0.36309    0.50064    0.62551   1.00
H2       0.35319    0.46775    0.66505   1.00
C3b      0.43204    0.38414    0.62296   1.00
C5       0.45233    0.35092    0.64348   1.00
H2       0.43149    0.33546    0.66283   1.00
H2       0.46452    0.32931    0.62265   1.00
H2       0.47671    0.36225    0.66150   1.00
C3a      0.39455    0.44545    0.58345   1.00
H1       0.38014    0.46901    0.56800   1.00
C3a      0.43066    0.38446    0.58243   1.00
H1       0.44414    0.36089    0.56619   1.00
C2       0.41201    0.41495    0.56257   1.00
C2       0.41799    0.91495    0.56257   1.00
C3a      0.44788    0.89690    0.58384   1.00
H1       0.47189    0.88293    0.56869   1.00
C3a      0.38691    0.93302    0.58204   1.00
H1       0.36382    0.94696    0.56551   1.00
C3b      0.44703    0.89672    0.62438   1.00
C5       0.47964    0.87705    0.64644   1.00
H2       0.46777    0.85321    0.66484   1.00
H2       0.50182    0.86425    0.62661   1.00
H2       0.49455    0.89845    0.66560   1.00
C3b      0.38539    0.93324    0.62256   1.00
C5       0.35155    0.95293    0.64267   1.00
H2       0.36233    0.97679    0.66170   1.00
H2       0.33056    0.96571    0.62155   1.00
H2       0.33555    0.93155    0.66094   1.00
C4       0.41562    0.91499    0.64373   1.00
C4       0.41438    0.91501    0.68627   1.00
C3b      0.39554    0.88419    0.70601   1.00
C5       0.37648    0.85094    0.68437   1.00
H2       0.39840    0.83546    0.66629   1.00
H2       0.36309    0.82936    0.70449   1.00
H2       0.35319    0.86225    0.66495   1.00
C3b      0.43204    0.94586    0.70704   1.00
C5       0.45233    0.97908    0.68652   1.00
H2       0.43149    0.99454    0.66717   1.00
H2       0.46452    1.00069    0.70735   1.00
H2       0.47671    0.96775    0.66850   1.00
C3a      0.39455    0.88455    0.74655   1.00
H1       0.38014    0.86099    0.76200   1.00
C3a      0.43066    0.94554    0.74757   1.00
H1       0.44414    0.96911    0.76381   1.00
C2       0.41201    0.91505    0.76743   1.00
C2       0.41495    1.06257    0.41799   1.00
C3a      0.39690    1.08384    0.44788   1.00
H1       0.38293    1.06869    0.47189   1.00
C3a      0.43302    1.08204    0.38691   1.00
H1       0.44696    1.06551    0.36382   1.00
C3b      0.39672    1.12438    0.44703   1.00
C5       0.37705    1.14644    0.47964   1.00
H2       0.35321    1.16484    0.46777   1.00
H2       0.36425    1.12661    0.50182   1.00
H2       0.39845    1.16560    0.49455   1.00
C3b      0.43324    1.12256    0.38539   1.00
C5       0.45293    1.14267    0.35155   1.00
H2       0.47679    1.16170    0.36233   1.00
H2       0.46571    1.12155    0.33056   1.00
H2       0.43155    1.16094    0.33555   1.00
C4       0.41499    1.14373    0.41562   1.00
C4       0.41501    1.18627    0.41438   1.00
C3b      0.38419    1.20601    0.39554   1.00
C5       0.35094    1.18437    0.37648   1.00
H2       0.33546    1.16629    0.39840   1.00
H2       0.32936    1.20449    0.36309   1.00
H2       0.36225    1.16495    0.35319   1.00
C3b      0.44586    1.20704    0.43204   1.00
C5       0.47908    1.18652    0.45233   1.00
H2       0.49454    1.16717    0.43149   1.00
H2       0.50069    1.20735    0.46452   1.00
H2       0.46775    1.16850    0.47671   1.00
C3a      0.38455    1.24655    0.39455   1.00
H1       0.36099    1.26200    0.38014   1.00
C3a      0.44554    1.24757    0.43066   1.00
H1       0.46911    1.26381    0.44414   1.00
C2       0.41505    1.26743    0.41201   1.00
C2       0.26743    0.91799    0.41505   1.00
C3a      0.24616    0.94788    0.43310   1.00
H1       0.26131    0.97189    0.44707   1.00
C3a      0.24796    0.88691    0.39698   1.00
H1       0.26449    0.86382    0.38304   1.00
C3b      0.20562    0.94703    0.43328   1.00
C5       0.18356    0.97964    0.45295   1.00
H2       0.16516    0.96777    0.47679   1.00
H2       0.20339    1.00182    0.46575   1.00
H2       0.16440    0.99455    0.43155   1.00
C3b      0.20744    0.88539    0.39676   1.00
C5       0.18733    0.85155    0.37707   1.00
H2       0.16830    0.86233    0.35321   1.00
H2       0.20845    0.83056    0.36429   1.00
H2       0.16906    0.83555    0.39845   1.00
C4       0.18627    0.91562    0.41501   1.00
C4       0.14373    0.91438    0.41499   1.00
C3b      0.12399    0.89554    0.44581   1.00
C5       0.14563    0.87648    0.47906   1.00
H2       0.16371    0.89840    0.49454   1.00
H2       0.12551    0.86309    0.50064   1.00
H2       0.16505    0.85319    0.46775   1.00
C3b      0.12296    0.93204    0.38414   1.00
C5       0.14348    0.95233    0.35092   1.00
H2       0.16283    0.93149    0.33546   1.00
H2       0.12265    0.96452    0.32931   1.00
H2       0.16150    0.97671    0.36225   1.00
C3a      0.08345    0.89455    0.44545   1.00
H1       0.06800    0.88014    0.46901   1.00
C3a      0.08243    0.93066    0.38446   1.00
H1       0.06619    0.94414    0.36089   1.00
C2       0.06257    0.91201    0.41495   1.00
C2       0.56257    0.91799    0.41495   1.00
C3a      0.58384    0.94788    0.39690   1.00
H1       0.56869    0.97189    0.38293   1.00
C3a      0.58204    0.88691    0.43302   1.00
H1       0.56551    0.86382    0.44696   1.00
C3b      0.62438    0.94703    0.39672   1.00
C5       0.64644    0.97964    0.37705   1.00
H2       0.66484    0.96777    0.35321   1.00
H2       0.62661    1.00182    0.36425   1.00
H2       0.66560    0.99455    0.39845   1.00
C3b      0.62256    0.88539    0.43324   1.00
C5       0.64267    0.85155    0.45293   1.00
H2       0.66170    0.86233    0.47679   1.00
H2       0.62155    0.83056    0.46571   1.00
H2       0.66094    0.83555    0.43155   1.00
C4       0.64373    0.91562    0.41499   1.00
C4       0.68627    0.91438    0.41501   1.00
C3b      0.70601    0.89554    0.38419   1.00
C5       0.68437    0.87648    0.35094   1.00
H2       0.66629    0.89840    0.33546   1.00
H2       0.70449    0.86309    0.32936   1.00
H2       0.66495    0.85319    0.36225   1.00
C3b      0.70704    0.93204    0.44586   1.00
C5       0.68652    0.95233    0.47908   1.00
H2       0.66717    0.93149    0.49454   1.00
H2       0.70735    0.96452    0.50069   1.00
H2       0.66850    0.97671    0.46775   1.00
C3a      0.74655    0.89455    0.38455   1.00
H1       0.76200    0.88014    0.36099   1.00
C3a      0.74757    0.93066    0.44554   1.00
H1       0.76381    0.94414    0.46911   1.00
C2       0.76743    0.91201    0.41505   1.00
C2       0.41505    0.76743    0.41799   1.00
C3a      0.43310    0.74616    0.44788   1.00
H1       0.44707    0.76131    0.47189   1.00
C3a      0.39698    0.74796    0.38691   1.00
H1       0.38304    0.76449    0.36382   1.00
C3b      0.43328    0.70562    0.44703   1.00
C5       0.45295    0.68356    0.47964   1.00
H2       0.47679    0.66516    0.46777   1.00
H2       0.46575    0.70339    0.50182   1.00
H2       0.43155    0.66440    0.49455   1.00
C3b      0.39676    0.70744    0.38539   1.00
C5       0.37707    0.68733    0.35155   1.00
H2       0.35321    0.66830    0.36233   1.00
H2       0.36429    0.70845    0.33056   1.00
H2       0.39845    0.66906    0.33555   1.00
C4       0.41501    0.68627    0.41562   1.00
C4       0.41499    0.64373    0.41438   1.00
C3b      0.44581    0.62399    0.39554   1.00
C5       0.47906    0.64563    0.37648   1.00
H2       0.49454    0.66371    0.39840   1.00
H2       0.50064    0.62551    0.36309   1.00
H2       0.46775    0.66505    0.35319   1.00
C3b      0.38414    0.62296    0.43204   1.00
C5       0.35092    0.64348    0.45233   1.00
H2       0.33546    0.66283    0.43149   1.00
H2       0.32931    0.62265    0.46452   1.00
H2       0.36225    0.66150    0.47671   1.00
C3a      0.44545    0.58345    0.39455   1.00
H1       0.46901    0.56800    0.38014   1.00
C3a      0.38446    0.58243    0.43066   1.00
H1       0.36089    0.56619    0.44414   1.00
C2       0.41495    0.56257    0.41201   1.00
C2       0.41799    0.91505    0.26743   1.00
C3a      0.44788    0.93310    0.24616   1.00
H1       0.47189    0.94707    0.26131   1.00
C3a      0.38691    0.89698    0.24796   1.00
H1       0.36382    0.88304    0.26449   1.00
C3b      0.44703    0.93328    0.20562   1.00
C5       0.47964    0.95295    0.18356   1.00
H2       0.46777    0.97679    0.16516   1.00
H2       0.50182    0.96575    0.20339   1.00
H2       0.49455    0.93155    0.16440   1.00
C3b      0.38539    0.89676    0.20744   1.00
C5       0.35155    0.87707    0.18733   1.00
H2       0.36233    0.85321    0.16830   1.00
H2       0.33056    0.86429    0.20845   1.00
H2       0.33555    0.89845    0.16906   1.00
C4       0.41562    0.91501    0.18627   1.00
C4       0.41438    0.91499    0.14373   1.00
C3b      0.39554    0.94581    0.12399   1.00
C5       0.37648    0.97906    0.14563   1.00
H2       0.39840    0.99454    0.16371   1.00
H2       0.36309    1.00064    0.12551   1.00
H2       0.35319    0.96775    0.16505   1.00
C3b      0.43204    0.88414    0.12296   1.00
C5       0.45233    0.85092    0.14348   1.00
H2       0.43149    0.83546    0.16283   1.00
H2       0.46452    0.82931    0.12265   1.00
H2       0.47671    0.86225    0.16150   1.00
C3a      0.39455    0.94545    0.08345   1.00
H1       0.38014    0.96901    0.06800   1.00
C3a      0.43066    0.88446    0.08243   1.00
H1       0.44414    0.86089    0.06619   1.00
C2       0.41201    0.91495    0.06257   1.00
C2       0.91799    0.41495    0.56257   1.00
C3a      0.94788    0.39690    0.58384   1.00
H1       0.97189    0.38293    0.56869   1.00
C3a      0.88691    0.43302    0.58204   1.00
H1       0.86382    0.44696    0.56551   1.00
C3b      0.94703    0.39672    0.62438   1.00
C5       0.97964    0.37705    0.64644   1.00
H2       0.96777    0.35321    0.66484   1.00
H2       1.00182    0.36425    0.62661   1.00
H2       0.99455    0.39845    0.66560   1.00
C3b      0.88539    0.43324    0.62256   1.00
C5       0.85155    0.45293    0.64267   1.00
H2       0.86233    0.47679    0.66170   1.00
H2       0.83056    0.46571    0.62155   1.00
H2       0.83555    0.43155    0.66094   1.00
C4       0.91562    0.41499    0.64373   1.00
C4       0.91438    0.41501    0.68627   1.00
C3b      0.89554    0.38419    0.70601   1.00
C5       0.87648    0.35094    0.68437   1.00
H2       0.89840    0.33546    0.66629   1.00
H2       0.86309    0.32936    0.70449   1.00
H2       0.85319    0.36225    0.66495   1.00
C3b      0.93204    0.44586    0.70704   1.00
C5       0.95233    0.47908    0.68652   1.00
H2       0.93149    0.49454    0.66717   1.00
H2       0.96452    0.50069    0.70735   1.00
H2       0.97671    0.46775    0.66850   1.00
C3a      0.89455    0.38455    0.74655   1.00
H1       0.88014    0.36099    0.76200   1.00
C3a      0.93066    0.44554    0.74757   1.00
H1       0.94414    0.46911    0.76381   1.00
C2       0.91201    0.41505    0.76743   1.00
C2       0.91495    0.56257    0.41799   1.00
C3a      0.89690    0.58384    0.44788   1.00
H1       0.88293    0.56869    0.47189   1.00
C3a      0.93302    0.58204    0.38691   1.00
H1       0.94696    0.56551    0.36382   1.00
C3b      0.89672    0.62438    0.44703   1.00
C5       0.87705    0.64644    0.47964   1.00
H2       0.85321    0.66484    0.46777   1.00
H2       0.86425    0.62661    0.50182   1.00
H2       0.89845    0.66560    0.49455   1.00
C3b      0.93324    0.62256    0.38539   1.00
C5       0.95293    0.64267    0.35155   1.00
H2       0.97679    0.66170    0.36233   1.00
H2       0.96571    0.62155    0.33056   1.00
H2       0.93155    0.66094    0.33555   1.00
C4       0.91499    0.64373    0.41562   1.00
C4       0.91501    0.68627    0.41438   1.00
C3b      0.88419    0.70601    0.39554   1.00
C5       0.85094    0.68437    0.37648   1.00
H2       0.83546    0.66629    0.39840   1.00
H2       0.82936    0.70449    0.36309   1.00
H2       0.86225    0.66495    0.35319   1.00
C3b      0.94586    0.70704    0.43204   1.00
C5       0.97908    0.68652    0.45233   1.00
H2       0.99454    0.66717    0.43149   1.00
H2       1.00069    0.70735    0.46452   1.00
H2       0.96775    0.66850    0.47671   1.00
C3a      0.88455    0.74655    0.39455   1.00
H1       0.86099    0.76200    0.38014   1.00
C3a      0.94554    0.74757    0.43066   1.00
H1       0.96911    0.76381    0.44414   1.00
C2       0.91505    0.76743    0.41201   1.00
C2       0.76743    0.41799    0.41505   1.00
C3a      0.74616    0.44788    0.43310   1.00
H1       0.76131    0.47189    0.44707   1.00
C3a      0.74796    0.38691    0.39698   1.00
H1       0.76449    0.36382    0.38304   1.00
C3b      0.70562    0.44703    0.43328   1.00
C5       0.68356    0.47964    0.45295   1.00
H2       0.66516    0.46777    0.47679   1.00
H2       0.70339    0.50182    0.46575   1.00
H2       0.66440    0.49455    0.43155   1.00
C3b      0.70744    0.38539    0.39676   1.00
C5       0.68733    0.35155    0.37707   1.00
H2       0.66830    0.36233    0.35321   1.00
H2       0.70845    0.33056    0.36429   1.00
H2       0.66906    0.33555    0.39845   1.00
C4       0.68627    0.41562    0.41501   1.00
C4       0.64373    0.41438    0.41499   1.00
C3b      0.62399    0.39554    0.44581   1.00
C5       0.64563    0.37648    0.47906   1.00
H2       0.66371    0.39840    0.49454   1.00
H2       0.62551    0.36309    0.50064   1.00
H2       0.66505    0.35319    0.46775   1.00
C3b      0.62296    0.43204    0.38414   1.00
C5       0.64348    0.45233    0.35092   1.00
H2       0.66283    0.43149    0.33546   1.00
H2       0.62265    0.46452    0.32931   1.00
H2       0.66150    0.47671    0.36225   1.00
C3a      0.58345    0.39455    0.44545   1.00
H1       0.56800    0.38014    0.46901   1.00
C3a      0.58243    0.43066    0.38446   1.00
H1       0.56619    0.44414    0.36089   1.00
C2       0.56257    0.41201    0.41495   1.00
C2       1.06257    0.41799    0.41495   1.00
C3a      1.08384    0.44788    0.39690   1.00
H1       1.06869    0.47189    0.38293   1.00
C3a      1.08204    0.38691    0.43302   1.00
H1       1.06551    0.36382    0.44696   1.00
C3b      1.12438    0.44703    0.39672   1.00
C5       1.14644    0.47964    0.37705   1.00
H2       1.16484    0.46777    0.35321   1.00
H2       1.12661    0.50182    0.36425   1.00
H2       1.16560    0.49455    0.39845   1.00
C3b      1.12256    0.38539    0.43324   1.00
C5       1.14267    0.35155    0.45293   1.00
H2       1.16170    0.36233    0.47679   1.00
H2       1.12155    0.33056    0.46571   1.00
H2       1.16094    0.33555    0.43155   1.00
C4       1.14373    0.41562    0.41499   1.00
C4       1.18627    0.41438    0.41501   1.00
C3b      1.20601    0.39554    0.38419   1.00
C5       1.18437    0.37648    0.35094   1.00
H2       1.16629    0.39840    0.33546   1.00
H2       1.20449    0.36309    0.32936   1.00
H2       1.16495    0.35319    0.36225   1.00
C3b      1.20704    0.43204    0.44586   1.00
C5       1.18652    0.45233    0.47908   1.00
H2       1.16717    0.43149    0.49454   1.00
H2       1.20735    0.46452    0.50069   1.00
H2       1.16850    0.47671    0.46775   1.00
C3a      1.24655    0.39455    0.38455   1.00
H1       1.26200    0.38014    0.36099   1.00
C3a      1.24757    0.43066    0.44554   1.00
H1       1.26381    0.44414    0.46911   1.00
C2       1.26743    0.41201    0.41505   1.00
C2       0.91505    0.26743    0.41799   1.00
C3a      0.93310    0.24616    0.44788   1.00
H1       0.94707    0.26131    0.47189   1.00
C3a      0.89698    0.24796    0.38691   1.00
H1       0.88304    0.26449    0.36382   1.00
C3b      0.93328    0.20562    0.44703   1.00
C5       0.95295    0.18356    0.47964   1.00
H2       0.97679    0.16516    0.46777   1.00
H2       0.96575    0.20339    0.50182   1.00
H2       0.93155    0.16440    0.49455   1.00
C3b      0.89676    0.20744    0.38539   1.00
C5       0.87707    0.18733    0.35155   1.00
H2       0.85321    0.16830    0.36233   1.00
H2       0.86429    0.20845    0.33056   1.00
H2       0.89845    0.16906    0.33555   1.00
C4       0.91501    0.18627    0.41562   1.00
C4       0.91499    0.14373    0.41438   1.00
C3b      0.94581    0.12399    0.39554   1.00
C5       0.97906    0.14563    0.37648   1.00
H2       0.99454    0.16371    0.39840   1.00
H2       1.00064    0.12551    0.36309   1.00
H2       0.96775    0.16505    0.35319   1.00
C3b      0.88414    0.12296    0.43204   1.00
C5       0.85092    0.14348    0.45233   1.00
H2       0.83546    0.16283    0.43149   1.00
H2       0.82931    0.12265    0.46452   1.00
H2       0.86225    0.16150    0.47671   1.00
C3a      0.94545    0.08345    0.39455   1.00
H1       0.96901    0.06800    0.38014   1.00
C3a      0.88446    0.08243    0.43066   1.00
H1       0.86089    0.06619    0.44414   1.00
C2       0.91495    0.06257    0.41201   1.00
C2       0.91799    0.41505    0.26743   1.00
C3a      0.94788    0.43310    0.24616   1.00
H1       0.97189    0.44707    0.26131   1.00
C3a      0.88691    0.39698    0.24796   1.00
H1       0.86382    0.38304    0.26449   1.00
C3b      0.94703    0.43328    0.20562   1.00
C5       0.97964    0.45295    0.18356   1.00
H2       0.96777    0.47679    0.16516   1.00
H2       1.00182    0.46575    0.20339   1.00
H2       0.99455    0.43155    0.16440   1.00
C3b      0.88539    0.39676    0.20744   1.00
C5       0.85155    0.37707    0.18733   1.00
H2       0.86233    0.35321    0.16830   1.00
H2       0.83056    0.36429    0.20845   1.00
H2       0.83555    0.39845    0.16906   1.00
C4       0.91562    0.41501    0.18627   1.00
C4       0.91438    0.41499    0.14373   1.00
C3b      0.89554    0.44581    0.12399   1.00
C5       0.87648    0.47906    0.14563   1.00
H2       0.89840    0.49454    0.16371   1.00
H2       0.86309    0.50064    0.12551   1.00
H2       0.85319    0.46775    0.16505   1.00
C3b      0.93204    0.38414    0.12296   1.00
C5       0.95233    0.35092    0.14348   1.00
H2       0.93149    0.33546    0.16283   1.00
H2       0.96452    0.32931    0.12265   1.00
H2       0.97671    0.36225    0.16150   1.00
C3a      0.89455    0.44545    0.08345   1.00
H1       0.88014    0.46901    0.06800   1.00
C3a      0.93066    0.38446    0.08243   1.00
H1       0.94414    0.36089    0.06619   1.00
C2       0.91201    0.41495    0.06257   1.00
