data_IRMOF10_SG202_interpen_Ligand1cp_label_d.

_audit_creation_method             'generated by an auxiliary program of Tobunporous'

_symmetry_space_group_name_H-M     'P 1'
_symmetry_Int_Tables_number        1
_symmetry_cell_setting             triclinic

_cell_length_a                    34.2800
_cell_length_b                    34.2800
_cell_length_c                    34.2800
_cell_angle_alpha                 90.0000
_cell_angle_beta                  90.0000
_cell_angle_gamma                 90.0000

loop_
_atom_site_label
_atom_site_fract_x
_atom_site_fract_y
_atom_site_fract_z
_atom_site_occupancy
O1       0.75000    0.75000    0.75000   1.00
Zn1      0.71720    0.78280    0.78280   1.00
Zn1      0.78280    0.71720    0.78280   1.00
Zn1      0.78280    0.78280    0.71720   1.00
Zn1      0.71720    0.71720    0.71720   1.00
O2       0.72650    0.77350    0.83820   1.00
O2       0.72650    0.83820    0.77350   1.00
O2       0.66180    0.77350    0.77350   1.00
O2       0.77350    0.72650    0.83820   1.00
O2       0.83820    0.72650    0.77350   1.00
O2       0.77350    0.66180    0.77350   1.00
O2       0.77350    0.83820    0.72650   1.00
O2       0.83820    0.77350    0.72650   1.00
O2       0.77350    0.77350    0.66180   1.00
O2       0.66180    0.72650    0.72650   1.00
O2       0.72650    0.66180    0.72650   1.00
O2       0.72650    0.72650    0.66180   1.00
C1       0.75000    0.75000    0.85520   1.00
C1       0.75000    0.85520    0.75000   1.00
C1       0.64480    0.75000    0.75000   1.00
C1       0.85520    0.75000    0.75000   1.00
C1       0.75000    0.64480    0.75000   1.00
C1       0.75000    0.75000    0.64480   1.00
O1       0.25000    0.25000    0.75000   1.00
Zn1      0.21720    0.28280    0.78280   1.00
Zn1      0.28280    0.21720    0.78280   1.00
Zn1      0.28280    0.28280    0.71720   1.00
Zn1      0.21720    0.21720    0.71720   1.00
O2       0.22650    0.27350    0.83820   1.00
O2       0.22650    0.33820    0.77350   1.00
O2       0.16180    0.27350    0.77350   1.00
O2       0.27350    0.22650    0.83820   1.00
O2       0.33820    0.22650    0.77350   1.00
O2       0.27350    0.16180    0.77350   1.00
O2       0.27350    0.33820    0.72650   1.00
O2       0.33820    0.27350    0.72650   1.00
O2       0.27350    0.27350    0.66180   1.00
O2       0.16180    0.22650    0.72650   1.00
O2       0.22650    0.16180    0.72650   1.00
O2       0.22650    0.22650    0.66180   1.00
C1       0.25000    0.25000    0.85520   1.00
C1       0.25000    0.35520    0.75000   1.00
C1       0.14480    0.25000    0.75000   1.00
C1       0.35520    0.25000    0.75000   1.00
C1       0.25000    0.14480    0.75000   1.00
C1       0.25000    0.25000    0.64480   1.00
O1       0.25000    0.75000    0.25000   1.00
Zn1      0.21720    0.78280    0.28280   1.00
Zn1      0.28280    0.71720    0.28280   1.00
Zn1      0.28280    0.78280    0.21720   1.00
Zn1      0.21720    0.71720    0.21720   1.00
O2       0.22650    0.77350    0.33820   1.00
O2       0.22650    0.83820    0.27350   1.00
O2       0.16180    0.77350    0.27350   1.00
O2       0.27350    0.72650    0.33820   1.00
O2       0.33820    0.72650    0.27350   1.00
O2       0.27350    0.66180    0.27350   1.00
O2       0.27350    0.83820    0.22650   1.00
O2       0.33820    0.77350    0.22650   1.00
O2       0.27350    0.77350    0.16180   1.00
O2       0.16180    0.72650    0.22650   1.00
O2       0.22650    0.66180    0.22650   1.00
O2       0.22650    0.72650    0.16180   1.00
C1       0.25000    0.75000    0.35520   1.00
C1       0.25000    0.85520    0.25000   1.00
C1       0.14480    0.75000    0.25000   1.00
C1       0.35520    0.75000    0.25000   1.00
C1       0.25000    0.64480    0.25000   1.00
C1       0.25000    0.75000    0.14480   1.00
O1       0.75000    0.25000    0.25000   1.00
Zn1      0.71720    0.28280    0.28280   1.00
Zn1      0.78280    0.21720    0.28280   1.00
Zn1      0.78280    0.28280    0.21720   1.00
Zn1      0.71720    0.21720    0.21720   1.00
O2       0.72650    0.27350    0.33820   1.00
O2       0.72650    0.33820    0.27350   1.00
O2       0.66180    0.27350    0.27350   1.00
O2       0.77350    0.22650    0.33820   1.00
O2       0.83820    0.22650    0.27350   1.00
O2       0.77350    0.16180    0.27350   1.00
O2       0.77350    0.33820    0.22650   1.00
O2       0.83820    0.27350    0.22650   1.00
O2       0.77350    0.27350    0.16180   1.00
O2       0.66180    0.22650    0.22650   1.00
O2       0.72650    0.16180    0.22650   1.00
O2       0.72650    0.22650    0.16180   1.00
C1       0.75000    0.25000    0.35520   1.00
C1       0.75000    0.35520    0.25000   1.00
C1       0.64480    0.25000    0.25000   1.00
C1       0.85520    0.25000    0.25000   1.00
C1       0.75000    0.14480    0.25000   1.00
C1       0.75000    0.25000    0.14480   1.00
O1       0.25000    0.25000    0.25000   1.00
Zn1      0.28280    0.21720    0.21720   1.00
Zn1      0.21720    0.28280    0.21720   1.00
Zn1      0.21720    0.21720    0.28280   1.00
Zn1      0.28280    0.28280    0.28280   1.00
O2       0.27350    0.22650    0.16180   1.00
O2       0.27350    0.16180    0.22650   1.00
O2       0.33820    0.22650    0.22650   1.00
O2       0.22650    0.27350    0.16180   1.00
O2       0.16180    0.27350    0.22650   1.00
O2       0.22650    0.33820    0.22650   1.00
O2       0.22650    0.16180    0.27350   1.00
O2       0.16180    0.22650    0.27350   1.00
O2       0.22650    0.22650    0.33820   1.00
O2       0.33820    0.27350    0.27350   1.00
O2       0.27350    0.33820    0.27350   1.00
O2       0.27350    0.27350    0.33820   1.00
C1       0.25000    0.25000    0.14480   1.00
C1       0.25000    0.14480    0.25000   1.00
C1       0.35520    0.25000    0.25000   1.00
C1       0.14480    0.25000    0.25000   1.00
C1       0.25000    0.35520    0.25000   1.00
C1       0.25000    0.25000    0.35520   1.00
O1       0.75000    0.75000    0.25000   1.00
Zn1      0.78280    0.71720    0.21720   1.00
Zn1      0.71720    0.78280    0.21720   1.00
Zn1      0.71720    0.71720    0.28280   1.00
Zn1      0.78280    0.78280    0.28280   1.00
O2       0.77350    0.72650    0.16180   1.00
O2       0.77350    0.66180    0.22650   1.00
O2       0.83820    0.72650    0.22650   1.00
O2       0.72650    0.77350    0.16180   1.00
O2       0.66180    0.77350    0.22650   1.00
O2       0.72650    0.83820    0.22650   1.00
O2       0.72650    0.66180    0.27350   1.00
O2       0.66180    0.72650    0.27350   1.00
O2       0.72650    0.72650    0.33820   1.00
O2       0.83820    0.77350    0.27350   1.00
O2       0.77350    0.83820    0.27350   1.00
O2       0.77350    0.77350    0.33820   1.00
C1       0.75000    0.75000    0.14480   1.00
C1       0.75000    0.64480    0.25000   1.00
C1       0.85520    0.75000    0.25000   1.00
C1       0.64480    0.75000    0.25000   1.00
C1       0.75000    0.85520    0.25000   1.00
C1       0.75000    0.75000    0.35520   1.00
O1       0.75000    0.25000    0.75000   1.00
Zn1      0.78280    0.21720    0.71720   1.00
Zn1      0.71720    0.28280    0.71720   1.00
Zn1      0.71720    0.21720    0.78280   1.00
Zn1      0.78280    0.28280    0.78280   1.00
O2       0.77350    0.22650    0.66180   1.00
O2       0.77350    0.16180    0.72650   1.00
O2       0.83820    0.22650    0.72650   1.00
O2       0.72650    0.27350    0.66180   1.00
O2       0.66180    0.27350    0.72650   1.00
O2       0.72650    0.33820    0.72650   1.00
O2       0.72650    0.16180    0.77350   1.00
O2       0.66180    0.22650    0.77350   1.00
O2       0.72650    0.22650    0.83820   1.00
O2       0.83820    0.27350    0.77350   1.00
O2       0.77350    0.33820    0.77350   1.00
O2       0.77350    0.27350    0.83820   1.00
C1       0.75000    0.25000    0.64480   1.00
C1       0.75000    0.14480    0.75000   1.00
C1       0.85520    0.25000    0.75000   1.00
C1       0.64480    0.25000    0.75000   1.00
C1       0.75000    0.35520    0.75000   1.00
C1       0.75000    0.25000    0.85520   1.00
O1       0.25000    0.75000    0.75000   1.00
Zn1      0.28280    0.71720    0.71720   1.00
Zn1      0.21720    0.78280    0.71720   1.00
Zn1      0.21720    0.71720    0.78280   1.00
Zn1      0.28280    0.78280    0.78280   1.00
O2       0.27350    0.72650    0.66180   1.00
O2       0.27350    0.66180    0.72650   1.00
O2       0.33820    0.72650    0.72650   1.00
O2       0.22650    0.77350    0.66180   1.00
O2       0.16180    0.77350    0.72650   1.00
O2       0.22650    0.83820    0.72650   1.00
O2       0.22650    0.66180    0.77350   1.00
O2       0.16180    0.72650    0.77350   1.00
O2       0.22650    0.72650    0.83820   1.00
O2       0.33820    0.77350    0.77350   1.00
O2       0.27350    0.83820    0.77350   1.00
O2       0.27350    0.77350    0.83820   1.00
C1       0.25000    0.75000    0.64480   1.00
C1       0.25000    0.64480    0.75000   1.00
C1       0.35520    0.75000    0.75000   1.00
C1       0.14480    0.75000    0.75000   1.00
C1       0.25000    0.85520    0.75000   1.00
C1       0.25000    0.75000    0.85520   1.00
O1       0.91500    0.91500    0.91500   1.00
Zn1      0.88220    0.94780    0.94780   1.00
Zn1      0.94780    0.88220    0.94780   1.00
Zn1      0.94780    0.94780    0.88220   1.00
Zn1      0.88220    0.88220    0.88220   1.00
O2       0.89150    0.93850    1.00320   1.00
O2       0.89150    1.00320    0.93850   1.00
O2       0.82680    0.93850    0.93850   1.00
O2       0.93850    0.89150    1.00320   1.00
O2       1.00320    0.89150    0.93850   1.00
O2       0.93850    0.82680    0.93850   1.00
O2       0.93850    1.00320    0.89150   1.00
O2       1.00320    0.93850    0.89150   1.00
O2       0.93850    0.93850    0.82680   1.00
O2       0.82680    0.89150    0.89150   1.00
O2       0.89150    0.82680    0.89150   1.00
O2       0.89150    0.89150    0.82680   1.00
C1       0.91500    0.91500    1.02020   1.00
C1       0.91500    1.02020    0.91500   1.00
C1       0.80980    0.91500    0.91500   1.00
C1       1.02020    0.91500    0.91500   1.00
C1       0.91500    0.80980    0.91500   1.00
C1       0.91500    0.91500    0.80980   1.00
O1       0.41500    0.41500    0.91500   1.00
Zn1      0.38220    0.44780    0.94780   1.00
Zn1      0.44780    0.38220    0.94780   1.00
Zn1      0.44780    0.44780    0.88220   1.00
Zn1      0.38220    0.38220    0.88220   1.00
O2       0.39150    0.43850    1.00320   1.00
O2       0.39150    0.50320    0.93850   1.00
O2       0.32680    0.43850    0.93850   1.00
O2       0.43850    0.39150    1.00320   1.00
O2       0.50320    0.39150    0.93850   1.00
O2       0.43850    0.32680    0.93850   1.00
O2       0.43850    0.50320    0.89150   1.00
O2       0.50320    0.43850    0.89150   1.00
O2       0.43850    0.43850    0.82680   1.00
O2       0.32680    0.39150    0.89150   1.00
O2       0.39150    0.32680    0.89150   1.00
O2       0.39150    0.39150    0.82680   1.00
C1       0.41500    0.41500    1.02020   1.00
C1       0.41500    0.52020    0.91500   1.00
C1       0.30980    0.41500    0.91500   1.00
C1       0.52020    0.41500    0.91500   1.00
C1       0.41500    0.30980    0.91500   1.00
C1       0.41500    0.41500    0.80980   1.00
O1       0.41500    0.91500    0.41500   1.00
Zn1      0.38220    0.94780    0.44780   1.00
Zn1      0.44780    0.88220    0.44780   1.00
Zn1      0.44780    0.94780    0.38220   1.00
Zn1      0.38220    0.88220    0.38220   1.00
O2       0.39150    0.93850    0.50320   1.00
O2       0.39150    1.00320    0.43850   1.00
O2       0.32680    0.93850    0.43850   1.00
O2       0.43850    0.89150    0.50320   1.00
O2       0.50320    0.89150    0.43850   1.00
O2       0.43850    0.82680    0.43850   1.00
O2       0.43850    1.00320    0.39150   1.00
O2       0.50320    0.93850    0.39150   1.00
O2       0.43850    0.93850    0.32680   1.00
O2       0.32680    0.89150    0.39150   1.00
O2       0.39150    0.82680    0.39150   1.00
O2       0.39150    0.89150    0.32680   1.00
C1       0.41500    0.91500    0.52020   1.00
C1       0.41500    1.02020    0.41500   1.00
C1       0.30980    0.91500    0.41500   1.00
C1       0.52020    0.91500    0.41500   1.00
C1       0.41500    0.80980    0.41500   1.00
C1       0.41500    0.91500    0.30980   1.00
O1       0.91500    0.41500    0.41500   1.00
Zn1      0.88220    0.44780    0.44780   1.00
Zn1      0.94780    0.38220    0.44780   1.00
Zn1      0.94780    0.44780    0.38220   1.00
Zn1      0.88220    0.38220    0.38220   1.00
O2       0.89150    0.43850    0.50320   1.00
O2       0.89150    0.50320    0.43850   1.00
O2       0.82680    0.43850    0.43850   1.00
O2       0.93850    0.39150    0.50320   1.00
O2       1.00320    0.39150    0.43850   1.00
O2       0.93850    0.32680    0.43850   1.00
O2       0.93850    0.50320    0.39150   1.00
O2       1.00320    0.43850    0.39150   1.00
O2       0.93850    0.43850    0.32680   1.00
O2       0.82680    0.39150    0.39150   1.00
O2       0.89150    0.32680    0.39150   1.00
O2       0.89150    0.39150    0.32680   1.00
C1       0.91500    0.41500    0.52020   1.00
C1       0.91500    0.52020    0.41500   1.00
C1       0.80980    0.41500    0.41500   1.00
C1       1.02020    0.41500    0.41500   1.00
C1       0.91500    0.30980    0.41500   1.00
C1       0.91500    0.41500    0.30980   1.00
O1       0.41500    0.41500    0.41500   1.00
Zn1      0.44780    0.38220    0.38220   1.00
Zn1      0.38220    0.44780    0.38220   1.00
Zn1      0.38220    0.38220    0.44780   1.00
Zn1      0.44780    0.44780    0.44780   1.00
O2       0.43850    0.39150    0.32680   1.00
O2       0.43850    0.32680    0.39150   1.00
O2       0.50320    0.39150    0.39150   1.00
O2       0.39150    0.43850    0.32680   1.00
O2       0.32680    0.43850    0.39150   1.00
O2       0.39150    0.50320    0.39150   1.00
O2       0.39150    0.32680    0.43850   1.00
O2       0.32680    0.39150    0.43850   1.00
O2       0.39150    0.39150    0.50320   1.00
O2       0.50320    0.43850    0.43850   1.00
O2       0.43850    0.50320    0.43850   1.00
O2       0.43850    0.43850    0.50320   1.00
C1       0.41500    0.41500    0.30980   1.00
C1       0.41500    0.30980    0.41500   1.00
C1       0.52020    0.41500    0.41500   1.00
C1       0.30980    0.41500    0.41500   1.00
C1       0.41500    0.52020    0.41500   1.00
C1       0.41500    0.41500    0.52020   1.00
O1       0.91500    0.91500    0.41500   1.00
Zn1      0.94780    0.88220    0.38220   1.00
Zn1      0.88220    0.94780    0.38220   1.00
Zn1      0.88220    0.88220    0.44780   1.00
Zn1      0.94780    0.94780    0.44780   1.00
O2       0.93850    0.89150    0.32680   1.00
O2       0.93850    0.82680    0.39150   1.00
O2       1.00320    0.89150    0.39150   1.00
O2       0.89150    0.93850    0.32680   1.00
O2       0.82680    0.93850    0.39150   1.00
O2       0.89150    1.00320    0.39150   1.00
O2       0.89150    0.82680    0.43850   1.00
O2       0.82680    0.89150    0.43850   1.00
O2       0.89150    0.89150    0.50320   1.00
O2       1.00320    0.93850    0.43850   1.00
O2       0.93850    1.00320    0.43850   1.00
O2       0.93850    0.93850    0.50320   1.00
C1       0.91500    0.91500    0.30980   1.00
C1       0.91500    0.80980    0.41500   1.00
C1       1.02020    0.91500    0.41500   1.00
C1       0.80980    0.91500    0.41500   1.00
C1       0.91500    1.02020    0.41500   1.00
C1       0.91500    0.91500    0.52020   1.00
O1       0.91500    0.41500    0.91500   1.00
Zn1      0.94780    0.38220    0.88220   1.00
Zn1      0.88220    0.44780    0.88220   1.00
Zn1      0.88220    0.38220    0.94780   1.00
Zn1      0.94780    0.44780    0.94780   1.00
O2       0.93850    0.39150    0.82680   1.00
O2       0.93850    0.32680    0.89150   1.00
O2       1.00320    0.39150    0.89150   1.00
O2       0.89150    0.43850    0.82680   1.00
O2       0.82680    0.43850    0.89150   1.00
O2       0.89150    0.50320    0.89150   1.00
O2       0.89150    0.32680    0.93850   1.00
O2       0.82680    0.39150    0.93850   1.00
O2       0.89150    0.39150    1.00320   1.00
O2       1.00320    0.43850    0.93850   1.00
O2       0.93850    0.50320    0.93850   1.00
O2       0.93850    0.43850    1.00320   1.00
C1       0.91500    0.41500    0.80980   1.00
C1       0.91500    0.30980    0.91500   1.00
C1       1.02020    0.41500    0.91500   1.00
C1       0.80980    0.41500    0.91500   1.00
C1       0.91500    0.52020    0.91500   1.00
C1       0.91500    0.41500    1.02020   1.00
O1       0.41500    0.91500    0.91500   1.00
Zn1      0.44780    0.88220    0.88220   1.00
Zn1      0.38220    0.94780    0.88220   1.00
Zn1      0.38220    0.88220    0.94780   1.00
Zn1      0.44780    0.94780    0.94780   1.00
O2       0.43850    0.89150    0.82680   1.00
O2       0.43850    0.82680    0.89150   1.00
O2       0.50320    0.89150    0.89150   1.00
O2       0.39150    0.93850    0.82680   1.00
O2       0.32680    0.93850    0.89150   1.00
O2       0.39150    1.00320    0.89150   1.00
O2       0.39150    0.82680    0.93850   1.00
O2       0.32680    0.89150    0.93850   1.00
O2       0.39150    0.89150    1.00320   1.00
O2       0.50320    0.93850    0.93850   1.00
O2       0.43850    1.00320    0.93850   1.00
O2       0.43850    0.93850    1.00320   1.00
C1       0.41500    0.91500    0.80980   1.00
C1       0.41500    0.80980    0.91500   1.00
C1       0.52020    0.91500    0.91500   1.00
C1       0.30980    0.91500    0.91500   1.00
C1       0.41500    1.02020    0.91500   1.00
C1       0.41500    0.91500    1.02020   1.00
C5       0.76647    0.87594    1.13227   1.00
H2       0.73860    0.86964    1.14755   1.00
H2       0.75979    0.89946    1.11099   1.00
C5       0.79722    0.89004    1.16219   1.00
H2       0.79318    0.92157    1.16890   1.00
H2       0.82714    0.88547    1.15040   1.00
O_3      0.82069    0.75295    0.98000   1.00
C4       0.74958    0.74985    1.02100   1.00
C3c      0.74749    0.78471    1.04243   1.00
H1       0.74572    0.81231    1.02725   1.00
C3d      0.75130    0.71417    1.04135   1.00
C3       0.74820    0.78466    1.08354   1.00
O2       0.74126    0.81939    1.10248   1.00
C3       0.75276    0.71406    1.08227   1.00
H1       0.75548    0.68608    1.09657   1.00
C2       0.75111    0.74908    1.10439   1.00
C5       0.83992    0.71653    0.97879   1.00
H2       0.84682    0.70727    0.94838   1.00
H2       0.82185    0.69326    0.99266   1.00
C5       0.87794    0.72067    1.00122   1.00
H2       0.87113    0.73098    1.03129   1.00
H2       0.89590    0.74371    0.98691   1.00
C5       0.90015    0.68184    1.00254   1.00
H2       0.90681    0.67123    0.97260   1.00
H2       0.88280    0.65917    1.01803   1.00
H2       0.92825    0.68564    1.01830   1.00
C5       0.71961    0.66410    1.01105   1.00
C5       0.77702    0.83826    1.11070   1.00
H2       0.70397    0.68415    0.99088   1.00
H2       0.70084    0.65880    1.03712   1.00
H2       0.79270    0.84511    1.08300   1.00
H2       0.79693    0.81991    1.12895   1.00
H2       0.79428    0.87417    1.19055   1.00
H2       0.68370    0.63068    0.94250   1.00
H2       0.66426    0.61076    0.98766   1.00
C2       0.75198    0.74836    0.89605   1.00
C3       0.71592    0.74888    0.91597   1.00
O2       0.68190    0.73921    0.89674   1.00
C3       0.78674    0.75029    0.91826   1.00
H1       0.81477    0.75096    0.90385   1.00
C3a      0.71538    0.75027    0.95713   1.00
H1       0.68762    0.74840    0.97202   1.00
C3b      0.78612    0.75041    0.95922   1.00
C4       0.75028    0.75032    0.97900   1.00
O_3      0.75638    0.67928    1.02167   1.00
C5       0.66076    0.77322    0.88720   1.00
H2       0.65303    0.79021    0.91391   1.00
C5       0.62335    0.76005    0.86666   1.00
H2       0.67790    0.79238    0.86726   1.00
H2       0.60207    0.75039    0.88923   1.00
H2       0.63068    0.73377    0.84899   1.00
C5       0.60537    0.79210    0.84069   1.00
H2       0.60111    0.81912    0.85811   1.00
H2       0.57661    0.78261    0.82891   1.00
H2       0.62433    0.79859    0.81494   1.00
C5       0.72659    0.62550    0.99020   1.00
H2       0.73596    0.60346    1.01218   1.00
H2       0.75140    0.62942    0.96955   1.00
C5       0.69011    0.61149    0.96803   1.00
H2       0.69492    0.58150    0.95666   1.00
C5       0.87594    1.13227    0.76647   1.00
H2       0.86964    1.14755    0.73860   1.00
H2       0.89946    1.11099    0.75979   1.00
C5       0.89004    1.16219    0.79722   1.00
H2       0.92157    1.16890    0.79318   1.00
H2       0.88547    1.15040    0.82714   1.00
O_3      0.75295    0.98000    0.82069   1.00
C4       0.74985    1.02100    0.74958   1.00
C3c      0.78471    1.04243    0.74749   1.00
H1       0.81231    1.02725    0.74572   1.00
C3d      0.71417    1.04135    0.75130   1.00
C3       0.78466    1.08354    0.74820   1.00
O2       0.81939    1.10248    0.74126   1.00
C3       0.71406    1.08227    0.75276   1.00
H1       0.68608    1.09657    0.75548   1.00
C2       0.74908    1.10439    0.75111   1.00
C5       0.71653    0.97879    0.83992   1.00
H2       0.70727    0.94838    0.84682   1.00
H2       0.69326    0.99266    0.82185   1.00
C5       0.72067    1.00122    0.87794   1.00
H2       0.73098    1.03129    0.87113   1.00
H2       0.74371    0.98691    0.89590   1.00
C5       0.68184    1.00254    0.90015   1.00
H2       0.67123    0.97260    0.90681   1.00
H2       0.65917    1.01803    0.88280   1.00
H2       0.68564    1.01830    0.92825   1.00
C5       0.66410    1.01105    0.71961   1.00
C5       0.83826    1.11070    0.77702   1.00
H2       0.68415    0.99088    0.70397   1.00
H2       0.65880    1.03712    0.70084   1.00
H2       0.84511    1.08300    0.79270   1.00
H2       0.81991    1.12895    0.79693   1.00
H2       0.87417    1.19055    0.79428   1.00
H2       0.63068    0.94250    0.68370   1.00
H2       0.61076    0.98766    0.66426   1.00
C2       0.74836    0.89605    0.75198   1.00
C3       0.74888    0.91597    0.71592   1.00
O2       0.73921    0.89674    0.68190   1.00
C3       0.75029    0.91826    0.78674   1.00
H1       0.75096    0.90385    0.81477   1.00
C3a      0.75027    0.95713    0.71538   1.00
H1       0.74840    0.97202    0.68762   1.00
C3b      0.75041    0.95922    0.78612   1.00
C4       0.75032    0.97900    0.75028   1.00
O_3      0.67928    1.02167    0.75638   1.00
C5       0.77322    0.88720    0.66076   1.00
H2       0.79021    0.91391    0.65303   1.00
C5       0.76005    0.86666    0.62335   1.00
H2       0.79238    0.86726    0.67790   1.00
H2       0.75039    0.88923    0.60207   1.00
H2       0.73377    0.84899    0.63068   1.00
C5       0.79210    0.84069    0.60537   1.00
H2       0.81912    0.85811    0.60111   1.00
H2       0.78261    0.82891    0.57661   1.00
H2       0.79859    0.81494    0.62433   1.00
C5       0.62550    0.99020    0.72659   1.00
H2       0.60346    1.01218    0.73596   1.00
H2       0.62942    0.96955    0.75140   1.00
C5       0.61149    0.96803    0.69011   1.00
H2       0.58150    0.95666    0.69492   1.00
C5       0.36773    0.76647    0.62406   1.00
H2       0.35245    0.73860    0.63036   1.00
H2       0.38901    0.75979    0.60054   1.00
C5       0.33781    0.79722    0.60996   1.00
H2       0.33110    0.79318    0.57843   1.00
H2       0.34960    0.82714    0.61453   1.00
O_3      0.52000    0.82069    0.74705   1.00
C4       0.47900    0.74958    0.75015   1.00
C3c      0.45757    0.74749    0.71529   1.00
H1       0.47275    0.74572    0.68769   1.00
C3d      0.45865    0.75130    0.78583   1.00
C3       0.41646    0.74820    0.71534   1.00
O2       0.39752    0.74126    0.68061   1.00
C3       0.41773    0.75276    0.78594   1.00
H1       0.40343    0.75548    0.81392   1.00
C2       0.39561    0.75111    0.75092   1.00
C5       0.52121    0.83992    0.78347   1.00
H2       0.55162    0.84682    0.79273   1.00
H2       0.50734    0.82185    0.80674   1.00
C5       0.49878    0.87794    0.77933   1.00
H2       0.46871    0.87113    0.76902   1.00
H2       0.51309    0.89590    0.75629   1.00
C5       0.49746    0.90015    0.81816   1.00
H2       0.52740    0.90681    0.82877   1.00
H2       0.48197    0.88280    0.84083   1.00
H2       0.48170    0.92825    0.81436   1.00
C5       0.48895    0.71961    0.83590   1.00
C5       0.38930    0.77702    0.66174   1.00
H2       0.50912    0.70397    0.81585   1.00
H2       0.46288    0.70084    0.84120   1.00
H2       0.41700    0.79270    0.65489   1.00
H2       0.37105    0.79693    0.68009   1.00
H2       0.30945    0.79428    0.62583   1.00
H2       0.55750    0.68370    0.86932   1.00
H2       0.51234    0.66426    0.88924   1.00
C2       0.60395    0.75198    0.75164   1.00
C3       0.58403    0.71592    0.75112   1.00
O2       0.60326    0.68190    0.76079   1.00
C3       0.58174    0.78674    0.74971   1.00
H1       0.59615    0.81477    0.74904   1.00
C3a      0.54287    0.71538    0.74973   1.00
H1       0.52798    0.68762    0.75160   1.00
C3b      0.54078    0.78612    0.74959   1.00
C4       0.52100    0.75028    0.74968   1.00
O_3      0.47833    0.75638    0.82072   1.00
C5       0.61280    0.66076    0.72678   1.00
H2       0.58609    0.65303    0.70979   1.00
C5       0.63334    0.62335    0.73995   1.00
H2       0.63274    0.67790    0.70762   1.00
H2       0.61077    0.60207    0.74961   1.00
H2       0.65101    0.63068    0.76623   1.00
C5       0.65931    0.60537    0.70790   1.00
H2       0.64189    0.60111    0.68088   1.00
H2       0.67109    0.57661    0.71739   1.00
H2       0.68506    0.62433    0.70141   1.00
C5       0.50980    0.72659    0.87450   1.00
H2       0.48782    0.73596    0.89654   1.00
H2       0.53045    0.75140    0.87058   1.00
C5       0.53197    0.69011    0.88851   1.00
H2       0.54334    0.69492    0.91850   1.00
C5       1.13227    0.76647    0.87594   1.00
H2       1.14755    0.73860    0.86964   1.00
H2       1.11099    0.75979    0.89946   1.00
C5       1.16219    0.79722    0.89004   1.00
H2       1.16890    0.79318    0.92157   1.00
H2       1.15040    0.82714    0.88547   1.00
O_3      0.98000    0.82069    0.75295   1.00
C4       1.02100    0.74958    0.74985   1.00
C3c      1.04243    0.74749    0.78471   1.00
H1       1.02725    0.74572    0.81231   1.00
C3d      1.04135    0.75130    0.71417   1.00
C3       1.08354    0.74820    0.78466   1.00
O2       1.10248    0.74126    0.81939   1.00
C3       1.08227    0.75276    0.71406   1.00
H1       1.09657    0.75548    0.68608   1.00
C2       1.10439    0.75111    0.74908   1.00
C5       0.97879    0.83992    0.71653   1.00
H2       0.94838    0.84682    0.70727   1.00
H2       0.99266    0.82185    0.69326   1.00
C5       1.00122    0.87794    0.72067   1.00
H2       1.03129    0.87113    0.73098   1.00
H2       0.98691    0.89590    0.74371   1.00
C5       1.00254    0.90015    0.68184   1.00
H2       0.97260    0.90681    0.67123   1.00
H2       1.01803    0.88280    0.65917   1.00
H2       1.01830    0.92825    0.68564   1.00
C5       1.01105    0.71961    0.66410   1.00
C5       1.11070    0.77702    0.83826   1.00
H2       0.99088    0.70397    0.68415   1.00
H2       1.03712    0.70084    0.65880   1.00
H2       1.08300    0.79270    0.84511   1.00
H2       1.12895    0.79693    0.81991   1.00
H2       1.19055    0.79428    0.87417   1.00
H2       0.94250    0.68370    0.63068   1.00
H2       0.98766    0.66426    0.61076   1.00
C2       0.89605    0.75198    0.74836   1.00
C3       0.91597    0.71592    0.74888   1.00
O2       0.89674    0.68190    0.73921   1.00
C3       0.91826    0.78674    0.75029   1.00
H1       0.90385    0.81477    0.75096   1.00
C3a      0.95713    0.71538    0.75027   1.00
H1       0.97202    0.68762    0.74840   1.00
C3b      0.95922    0.78612    0.75041   1.00
C4       0.97900    0.75028    0.75032   1.00
O_3      1.02167    0.75638    0.67928   1.00
C5       0.88720    0.66076    0.77322   1.00
H2       0.91391    0.65303    0.79021   1.00
C5       0.86666    0.62335    0.76005   1.00
H2       0.86726    0.67790    0.79238   1.00
H2       0.88923    0.60207    0.75039   1.00
H2       0.84899    0.63068    0.73377   1.00
C5       0.84069    0.60537    0.79210   1.00
H2       0.85811    0.60111    0.81912   1.00
H2       0.82891    0.57661    0.78261   1.00
H2       0.81494    0.62433    0.79859   1.00
C5       0.99020    0.72659    0.62550   1.00
H2       1.01218    0.73596    0.60346   1.00
H2       0.96955    0.75140    0.62942   1.00
C5       0.96803    0.69011    0.61149   1.00
H2       0.95666    0.69492    0.58150   1.00
C5       0.62406    0.36773    0.76647   1.00
H2       0.63036    0.35245    0.73860   1.00
H2       0.60054    0.38901    0.75979   1.00
C5       0.60996    0.33781    0.79722   1.00
H2       0.57843    0.33110    0.79318   1.00
H2       0.61453    0.34960    0.82714   1.00
O_3      0.74705    0.52000    0.82069   1.00
C4       0.75015    0.47900    0.74958   1.00
C3c      0.71529    0.45757    0.74749   1.00
H1       0.68769    0.47275    0.74572   1.00
C3d      0.78583    0.45865    0.75130   1.00
C3       0.71534    0.41646    0.74820   1.00
O2       0.68061    0.39752    0.74126   1.00
C3       0.78594    0.41773    0.75276   1.00
H1       0.81392    0.40343    0.75548   1.00
C2       0.75092    0.39561    0.75111   1.00
C5       0.78347    0.52121    0.83992   1.00
H2       0.79273    0.55162    0.84682   1.00
H2       0.80674    0.50734    0.82185   1.00
C5       0.77933    0.49878    0.87794   1.00
H2       0.76902    0.46871    0.87113   1.00
H2       0.75629    0.51309    0.89590   1.00
C5       0.81816    0.49746    0.90015   1.00
H2       0.82877    0.52740    0.90681   1.00
H2       0.84083    0.48197    0.88280   1.00
H2       0.81436    0.48170    0.92825   1.00
C5       0.83590    0.48895    0.71961   1.00
C5       0.66174    0.38930    0.77702   1.00
H2       0.81585    0.50912    0.70397   1.00
H2       0.84120    0.46288    0.70084   1.00
H2       0.65489    0.41700    0.79270   1.00
H2       0.68009    0.37105    0.79693   1.00
H2       0.62583    0.30945    0.79428   1.00
H2       0.86932    0.55750    0.68370   1.00
H2       0.88924    0.51234    0.66426   1.00
C2       0.75164    0.60395    0.75198   1.00
C3       0.75112    0.58403    0.71592   1.00
O2       0.76079    0.60326    0.68190   1.00
C3       0.74971    0.58174    0.78674   1.00
H1       0.74904    0.59615    0.81477   1.00
C3a      0.74973    0.54287    0.71538   1.00
H1       0.75160    0.52798    0.68762   1.00
C3b      0.74959    0.54078    0.78612   1.00
C4       0.74968    0.52100    0.75028   1.00
O_3      0.82072    0.47833    0.75638   1.00
C5       0.72678    0.61280    0.66076   1.00
H2       0.70979    0.58609    0.65303   1.00
C5       0.73995    0.63334    0.62335   1.00
H2       0.70762    0.63274    0.67790   1.00
H2       0.74961    0.61077    0.60207   1.00
H2       0.76623    0.65101    0.63068   1.00
C5       0.70790    0.65931    0.60537   1.00
H2       0.68088    0.64189    0.60111   1.00
H2       0.71739    0.67109    0.57661   1.00
H2       0.70141    0.68506    0.62433   1.00
C5       0.87450    0.50980    0.72659   1.00
H2       0.89654    0.48782    0.73596   1.00
H2       0.87058    0.53045    0.75140   1.00
C5       0.88851    0.53197    0.69011   1.00
H2       0.91850    0.54334    0.69492   1.00
C5       0.76647    0.62406    0.36773   1.00
H2       0.73860    0.63036    0.35245   1.00
H2       0.75979    0.60054    0.38901   1.00
C5       0.79722    0.60996    0.33781   1.00
H2       0.79318    0.57843    0.33110   1.00
H2       0.82714    0.61453    0.34960   1.00
O_3      0.82069    0.74705    0.52000   1.00
C4       0.74958    0.75015    0.47900   1.00
C3c      0.74749    0.71529    0.45757   1.00
H1       0.74572    0.68769    0.47275   1.00
C3d      0.75130    0.78583    0.45865   1.00
C3       0.74820    0.71534    0.41646   1.00
O2       0.74126    0.68061    0.39752   1.00
C3       0.75276    0.78594    0.41773   1.00
H1       0.75548    0.81392    0.40343   1.00
C2       0.75111    0.75092    0.39561   1.00
C5       0.83992    0.78347    0.52121   1.00
H2       0.84682    0.79273    0.55162   1.00
H2       0.82185    0.80674    0.50734   1.00
C5       0.87794    0.77933    0.49878   1.00
H2       0.87113    0.76902    0.46871   1.00
H2       0.89590    0.75629    0.51309   1.00
C5       0.90015    0.81816    0.49746   1.00
H2       0.90681    0.82877    0.52740   1.00
H2       0.88280    0.84083    0.48197   1.00
H2       0.92825    0.81436    0.48170   1.00
C5       0.71961    0.83590    0.48895   1.00
C5       0.77702    0.66174    0.38930   1.00
H2       0.70397    0.81585    0.50912   1.00
H2       0.70084    0.84120    0.46288   1.00
H2       0.79270    0.65489    0.41700   1.00
H2       0.79693    0.68009    0.37105   1.00
H2       0.79428    0.62583    0.30945   1.00
H2       0.68370    0.86932    0.55750   1.00
H2       0.66426    0.88924    0.51234   1.00
C2       0.75198    0.75164    0.60395   1.00
C3       0.71592    0.75112    0.58403   1.00
O2       0.68190    0.76079    0.60326   1.00
C3       0.78674    0.74971    0.58174   1.00
H1       0.81477    0.74904    0.59615   1.00
C3a      0.71538    0.74973    0.54287   1.00
H1       0.68762    0.75160    0.52798   1.00
C3b      0.78612    0.74959    0.54078   1.00
C4       0.75028    0.74968    0.52100   1.00
O_3      0.75638    0.82072    0.47833   1.00
C5       0.66076    0.72678    0.61280   1.00
H2       0.65303    0.70979    0.58609   1.00
C5       0.62335    0.73995    0.63334   1.00
H2       0.67790    0.70762    0.63274   1.00
H2       0.60207    0.74961    0.61077   1.00
H2       0.63068    0.76623    0.65101   1.00
C5       0.60537    0.70790    0.65931   1.00
H2       0.60111    0.68088    0.64189   1.00
H2       0.57661    0.71739    0.67109   1.00
H2       0.62433    0.70141    0.68506   1.00
C5       0.72659    0.87450    0.50980   1.00
H2       0.73596    0.89654    0.48782   1.00
H2       0.75140    0.87058    0.53045   1.00
C5       0.69011    0.88851    0.53197   1.00
H2       0.69492    0.91850    0.54334   1.00
C5       0.26647    0.37594    1.13227   1.00
H2       0.23860    0.36964    1.14755   1.00
H2       0.25979    0.39946    1.11099   1.00
C5       0.29722    0.39004    1.16219   1.00
H2       0.29318    0.42157    1.16890   1.00
H2       0.32714    0.38547    1.15040   1.00
O_3      0.32069    0.25295    0.98000   1.00
C4       0.24958    0.24985    1.02100   1.00
C3c      0.24749    0.28471    1.04243   1.00
H1       0.24572    0.31231    1.02725   1.00
C3d      0.25130    0.21417    1.04135   1.00
C3       0.24820    0.28466    1.08354   1.00
O2       0.24126    0.31939    1.10248   1.00
C3       0.25276    0.21406    1.08227   1.00
H1       0.25548    0.18608    1.09657   1.00
C2       0.25111    0.24908    1.10439   1.00
C5       0.33992    0.21653    0.97879   1.00
H2       0.34682    0.20727    0.94838   1.00
H2       0.32185    0.19326    0.99266   1.00
C5       0.37794    0.22067    1.00122   1.00
H2       0.37113    0.23098    1.03129   1.00
H2       0.39590    0.24371    0.98691   1.00
C5       0.40015    0.18184    1.00254   1.00
H2       0.40681    0.17123    0.97260   1.00
H2       0.38280    0.15917    1.01803   1.00
H2       0.42825    0.18564    1.01830   1.00
C5       0.21961    0.16410    1.01105   1.00
C5       0.27702    0.33826    1.11070   1.00
H2       0.20397    0.18415    0.99088   1.00
H2       0.20084    0.15880    1.03712   1.00
H2       0.29270    0.34511    1.08300   1.00
H2       0.29693    0.31991    1.12895   1.00
H2       0.29428    0.37417    1.19055   1.00
H2       0.18370    0.13068    0.94250   1.00
H2       0.16426    0.11076    0.98766   1.00
C2       0.25198    0.24836    0.89605   1.00
C3       0.21592    0.24888    0.91597   1.00
O2       0.18190    0.23921    0.89674   1.00
C3       0.28674    0.25029    0.91826   1.00
H1       0.31477    0.25096    0.90385   1.00
C3a      0.21538    0.25027    0.95713   1.00
H1       0.18762    0.24840    0.97202   1.00
C3b      0.28612    0.25041    0.95922   1.00
C4       0.25028    0.25032    0.97900   1.00
O_3      0.25638    0.17928    1.02167   1.00
C5       0.16076    0.27322    0.88720   1.00
H2       0.15303    0.29021    0.91391   1.00
C5       0.12335    0.26005    0.86666   1.00
H2       0.17790    0.29238    0.86726   1.00
H2       0.10207    0.25039    0.88923   1.00
H2       0.13068    0.23377    0.84899   1.00
C5       0.10537    0.29210    0.84069   1.00
H2       0.10111    0.31912    0.85811   1.00
H2       0.07661    0.28261    0.82891   1.00
H2       0.12433    0.29859    0.81494   1.00
C5       0.22659    0.12550    0.99020   1.00
H2       0.23596    0.10346    1.01218   1.00
H2       0.25140    0.12942    0.96955   1.00
C5       0.19011    0.11149    0.96803   1.00
H2       0.19492    0.08150    0.95666   1.00
C5       0.37594    0.63227    0.76647   1.00
H2       0.36964    0.64755    0.73860   1.00
H2       0.39946    0.61099    0.75979   1.00
C5       0.39004    0.66219    0.79722   1.00
H2       0.42157    0.66890    0.79318   1.00
H2       0.38547    0.65040    0.82714   1.00
O_3      0.25295    0.48000    0.82069   1.00
C4       0.24985    0.52100    0.74958   1.00
C3c      0.28471    0.54243    0.74749   1.00
H1       0.31231    0.52725    0.74572   1.00
C3d      0.21417    0.54135    0.75130   1.00
C3       0.28466    0.58354    0.74820   1.00
O2       0.31939    0.60248    0.74126   1.00
C3       0.21406    0.58227    0.75276   1.00
H1       0.18608    0.59657    0.75548   1.00
C2       0.24908    0.60439    0.75111   1.00
C5       0.21653    0.47879    0.83992   1.00
H2       0.20727    0.44838    0.84682   1.00
H2       0.19326    0.49266    0.82185   1.00
C5       0.22067    0.50122    0.87794   1.00
H2       0.23098    0.53129    0.87113   1.00
H2       0.24371    0.48691    0.89590   1.00
C5       0.18184    0.50254    0.90015   1.00
H2       0.17123    0.47260    0.90681   1.00
H2       0.15917    0.51803    0.88280   1.00
H2       0.18564    0.51830    0.92825   1.00
C5       0.16410    0.51105    0.71961   1.00
C5       0.33826    0.61070    0.77702   1.00
H2       0.18415    0.49088    0.70397   1.00
H2       0.15880    0.53712    0.70084   1.00
H2       0.34511    0.58300    0.79270   1.00
H2       0.31991    0.62895    0.79693   1.00
H2       0.37417    0.69055    0.79428   1.00
H2       0.13068    0.44250    0.68370   1.00
H2       0.11076    0.48766    0.66426   1.00
C2       0.24836    0.39605    0.75198   1.00
C3       0.24888    0.41597    0.71592   1.00
O2       0.23921    0.39674    0.68190   1.00
C3       0.25029    0.41826    0.78674   1.00
H1       0.25096    0.40385    0.81477   1.00
C3a      0.25027    0.45713    0.71538   1.00
H1       0.24840    0.47202    0.68762   1.00
C3b      0.25041    0.45922    0.78612   1.00
C4       0.25032    0.47900    0.75028   1.00
O_3      0.17928    0.52167    0.75638   1.00
C5       0.27322    0.38720    0.66076   1.00
H2       0.29021    0.41391    0.65303   1.00
C5       0.26005    0.36666    0.62335   1.00
H2       0.29238    0.36726    0.67790   1.00
H2       0.25039    0.38923    0.60207   1.00
H2       0.23377    0.34899    0.63068   1.00
C5       0.29210    0.34069    0.60537   1.00
H2       0.31912    0.35811    0.60111   1.00
H2       0.28261    0.32891    0.57661   1.00
H2       0.29859    0.31494    0.62433   1.00
C5       0.12550    0.49020    0.72659   1.00
H2       0.10346    0.51218    0.73596   1.00
H2       0.12942    0.46955    0.75140   1.00
C5       0.11149    0.46803    0.69011   1.00
H2       0.08150    0.45666    0.69492   1.00
C5       -0.13227   0.26647    0.62406   1.00
H2       -0.14755   0.23860    0.63036   1.00
H2       -0.11099   0.25979    0.60054   1.00
C5       -0.16219   0.29722    0.60996   1.00
H2       -0.16890   0.29318    0.57843   1.00
H2       -0.15040   0.32714    0.61453   1.00
O_3      0.02000    0.32069    0.74705   1.00
C4       -0.02100   0.24958    0.75015   1.00
C3c      -0.04243   0.24749    0.71529   1.00
H1       -0.02725   0.24572    0.68769   1.00
C3d      -0.04135   0.25130    0.78583   1.00
C3       -0.08354   0.24820    0.71534   1.00
O2       -0.10248   0.24126    0.68061   1.00
C3       -0.08227   0.25276    0.78594   1.00
H1       -0.09657   0.25548    0.81392   1.00
C2       -0.10439   0.25111    0.75092   1.00
C5       0.02121    0.33992    0.78347   1.00
H2       0.05162    0.34682    0.79273   1.00
H2       0.00734    0.32185    0.80674   1.00
C5       -0.00122   0.37794    0.77933   1.00
H2       -0.03129   0.37113    0.76902   1.00
H2       0.01309    0.39590    0.75629   1.00
C5       -0.00254   0.40015    0.81816   1.00
H2       0.02740    0.40681    0.82877   1.00
H2       -0.01803   0.38280    0.84083   1.00
H2       -0.01830   0.42825    0.81436   1.00
C5       -0.01105   0.21961    0.83590   1.00
C5       -0.11070   0.27702    0.66174   1.00
H2       0.00912    0.20397    0.81585   1.00
H2       -0.03712   0.20084    0.84120   1.00
H2       -0.08300   0.29270    0.65489   1.00
H2       -0.12895   0.29693    0.68009   1.00
H2       -0.19055   0.29428    0.62583   1.00
H2       0.05750    0.18370    0.86932   1.00
H2       0.01234    0.16426    0.88924   1.00
C2       0.10395    0.25198    0.75164   1.00
C3       0.08403    0.21592    0.75112   1.00
O2       0.10326    0.18190    0.76079   1.00
C3       0.08174    0.28674    0.74971   1.00
H1       0.09615    0.31477    0.74904   1.00
C3a      0.04287    0.21538    0.74973   1.00
H1       0.02798    0.18762    0.75160   1.00
C3b      0.04078    0.28612    0.74959   1.00
C4       0.02100    0.25028    0.74968   1.00
O_3      -0.02167   0.25638    0.82072   1.00
C5       0.11280    0.16076    0.72678   1.00
H2       0.08609    0.15303    0.70979   1.00
C5       0.13334    0.12335    0.73995   1.00
H2       0.13274    0.17790    0.70762   1.00
H2       0.11077    0.10207    0.74961   1.00
H2       0.15101    0.13068    0.76623   1.00
C5       0.15931    0.10537    0.70790   1.00
H2       0.14189    0.10111    0.68088   1.00
H2       0.17109    0.07661    0.71739   1.00
H2       0.18506    0.12433    0.70141   1.00
C5       0.00980    0.22659    0.87450   1.00
H2       -0.01218   0.23596    0.89654   1.00
H2       0.03045    0.25140    0.87058   1.00
C5       0.03197    0.19011    0.88851   1.00
H2       0.04334    0.19492    0.91850   1.00
C5       0.63227    0.26647    0.87594   1.00
H2       0.64755    0.23860    0.86964   1.00
H2       0.61099    0.25979    0.89946   1.00
C5       0.66219    0.29722    0.89004   1.00
H2       0.66890    0.29318    0.92157   1.00
H2       0.65040    0.32714    0.88547   1.00
O_3      0.48000    0.32069    0.75295   1.00
C4       0.52100    0.24958    0.74985   1.00
C3c      0.54243    0.24749    0.78471   1.00
H1       0.52725    0.24572    0.81231   1.00
C3d      0.54135    0.25130    0.71417   1.00
C3       0.58354    0.24820    0.78466   1.00
O2       0.60248    0.24126    0.81939   1.00
C3       0.58227    0.25276    0.71406   1.00
H1       0.59657    0.25548    0.68608   1.00
C2       0.60439    0.25111    0.74908   1.00
C5       0.47879    0.33992    0.71653   1.00
H2       0.44838    0.34682    0.70727   1.00
H2       0.49266    0.32185    0.69326   1.00
C5       0.50122    0.37794    0.72067   1.00
H2       0.53129    0.37113    0.73098   1.00
H2       0.48691    0.39590    0.74371   1.00
C5       0.50254    0.40015    0.68184   1.00
H2       0.47260    0.40681    0.67123   1.00
H2       0.51803    0.38280    0.65917   1.00
H2       0.51830    0.42825    0.68564   1.00
C5       0.51105    0.21961    0.66410   1.00
C5       0.61070    0.27702    0.83826   1.00
H2       0.49088    0.20397    0.68415   1.00
H2       0.53712    0.20084    0.65880   1.00
H2       0.58300    0.29270    0.84511   1.00
H2       0.62895    0.29693    0.81991   1.00
H2       0.69055    0.29428    0.87417   1.00
H2       0.44250    0.18370    0.63068   1.00
H2       0.48766    0.16426    0.61076   1.00
C2       0.39605    0.25198    0.74836   1.00
C3       0.41597    0.21592    0.74888   1.00
O2       0.39674    0.18190    0.73921   1.00
C3       0.41826    0.28674    0.75029   1.00
H1       0.40385    0.31477    0.75096   1.00
C3a      0.45713    0.21538    0.75027   1.00
H1       0.47202    0.18762    0.74840   1.00
C3b      0.45922    0.28612    0.75041   1.00
C4       0.47900    0.25028    0.75032   1.00
O_3      0.52167    0.25638    0.67928   1.00
C5       0.38720    0.16076    0.77322   1.00
H2       0.41391    0.15303    0.79021   1.00
C5       0.36666    0.12335    0.76005   1.00
H2       0.36726    0.17790    0.79238   1.00
H2       0.38923    0.10207    0.75039   1.00
H2       0.34899    0.13068    0.73377   1.00
C5       0.34069    0.10537    0.79210   1.00
H2       0.35811    0.10111    0.81912   1.00
H2       0.32891    0.07661    0.78261   1.00
H2       0.31494    0.12433    0.79859   1.00
C5       0.49020    0.22659    0.62550   1.00
H2       0.51218    0.23596    0.60346   1.00
H2       0.46955    0.25140    0.62942   1.00
C5       0.46803    0.19011    0.61149   1.00
H2       0.45666    0.19492    0.58150   1.00
C5       0.12406    -0.13227   0.76647   1.00
H2       0.13036    -0.14755   0.73860   1.00
H2       0.10054    -0.11099   0.75979   1.00
C5       0.10996    -0.16219   0.79722   1.00
H2       0.07843    -0.16890   0.79318   1.00
H2       0.11453    -0.15040   0.82714   1.00
O_3      0.24705    0.02000    0.82069   1.00
C4       0.25015    -0.02100   0.74958   1.00
C3c      0.21529    -0.04243   0.74749   1.00
H1       0.18769    -0.02725   0.74572   1.00
C3d      0.28583    -0.04135   0.75130   1.00
C3       0.21534    -0.08354   0.74820   1.00
O2       0.18061    -0.10248   0.74126   1.00
C3       0.28594    -0.08227   0.75276   1.00
H1       0.31392    -0.09657   0.75548   1.00
C2       0.25092    -0.10439   0.75111   1.00
C5       0.28347    0.02121    0.83992   1.00
H2       0.29273    0.05162    0.84682   1.00
H2       0.30674    0.00734    0.82185   1.00
C5       0.27933    -0.00122   0.87794   1.00
H2       0.26902    -0.03129   0.87113   1.00
H2       0.25629    0.01309    0.89590   1.00
C5       0.31816    -0.00254   0.90015   1.00
H2       0.32877    0.02740    0.90681   1.00
H2       0.34083    -0.01803   0.88280   1.00
H2       0.31436    -0.01830   0.92825   1.00
C5       0.33590    -0.01105   0.71961   1.00
C5       0.16174    -0.11070   0.77702   1.00
H2       0.31585    0.00912    0.70397   1.00
H2       0.34120    -0.03712   0.70084   1.00
H2       0.15489    -0.08300   0.79270   1.00
H2       0.18009    -0.12895   0.79693   1.00
H2       0.12583    -0.19055   0.79428   1.00
H2       0.36932    0.05750    0.68370   1.00
H2       0.38924    0.01234    0.66426   1.00
C2       0.25164    0.10395    0.75198   1.00
C3       0.25112    0.08403    0.71592   1.00
O2       0.26079    0.10326    0.68190   1.00
C3       0.24971    0.08174    0.78674   1.00
H1       0.24904    0.09615    0.81477   1.00
C3a      0.24973    0.04287    0.71538   1.00
H1       0.25160    0.02798    0.68762   1.00
C3b      0.24959    0.04078    0.78612   1.00
C4       0.24968    0.02100    0.75028   1.00
O_3      0.32072    -0.02167   0.75638   1.00
C5       0.22678    0.11280    0.66076   1.00
H2       0.20979    0.08609    0.65303   1.00
C5       0.23995    0.13334    0.62335   1.00
H2       0.20762    0.13274    0.67790   1.00
H2       0.24961    0.11077    0.60207   1.00
H2       0.26623    0.15101    0.63068   1.00
C5       0.20790    0.15931    0.60537   1.00
H2       0.18088    0.14189    0.60111   1.00
H2       0.21739    0.17109    0.57661   1.00
H2       0.20141    0.18506    0.62433   1.00
C5       0.37450    0.00980    0.72659   1.00
H2       0.39654    -0.01218   0.73596   1.00
H2       0.37058    0.03045    0.75140   1.00
C5       0.38851    0.03197    0.69011   1.00
H2       0.41850    0.04334    0.69492   1.00
C5       0.26647    0.12406    0.36773   1.00
H2       0.23860    0.13036    0.35245   1.00
H2       0.25979    0.10054    0.38901   1.00
C5       0.29722    0.10996    0.33781   1.00
H2       0.29318    0.07843    0.33110   1.00
H2       0.32714    0.11453    0.34960   1.00
O_3      0.32069    0.24705    0.52000   1.00
C4       0.24958    0.25015    0.47900   1.00
C3c      0.24749    0.21529    0.45757   1.00
H1       0.24572    0.18769    0.47275   1.00
C3d      0.25130    0.28583    0.45865   1.00
C3       0.24820    0.21534    0.41646   1.00
O2       0.24126    0.18061    0.39752   1.00
C3       0.25276    0.28594    0.41773   1.00
H1       0.25548    0.31392    0.40343   1.00
C2       0.25111    0.25092    0.39561   1.00
C5       0.33992    0.28347    0.52121   1.00
H2       0.34682    0.29273    0.55162   1.00
H2       0.32185    0.30674    0.50734   1.00
C5       0.37794    0.27933    0.49878   1.00
H2       0.37113    0.26902    0.46871   1.00
H2       0.39590    0.25629    0.51309   1.00
C5       0.40015    0.31816    0.49746   1.00
H2       0.40681    0.32877    0.52740   1.00
H2       0.38280    0.34083    0.48197   1.00
H2       0.42825    0.31436    0.48170   1.00
C5       0.21961    0.33590    0.48895   1.00
C5       0.27702    0.16174    0.38930   1.00
H2       0.20397    0.31585    0.50912   1.00
H2       0.20084    0.34120    0.46288   1.00
H2       0.29270    0.15489    0.41700   1.00
H2       0.29693    0.18009    0.37105   1.00
H2       0.29428    0.12583    0.30945   1.00
H2       0.18370    0.36932    0.55750   1.00
H2       0.16426    0.38924    0.51234   1.00
C2       0.25198    0.25164    0.60395   1.00
C3       0.21592    0.25112    0.58403   1.00
O2       0.18190    0.26079    0.60326   1.00
C3       0.28674    0.24971    0.58174   1.00
H1       0.31477    0.24904    0.59615   1.00
C3a      0.21538    0.24973    0.54287   1.00
H1       0.18762    0.25160    0.52798   1.00
C3b      0.28612    0.24959    0.54078   1.00
C4       0.25028    0.24968    0.52100   1.00
O_3      0.25638    0.32072    0.47833   1.00
C5       0.16076    0.22678    0.61280   1.00
H2       0.15303    0.20979    0.58609   1.00
C5       0.12335    0.23995    0.63334   1.00
H2       0.17790    0.20762    0.63274   1.00
H2       0.10207    0.24961    0.61077   1.00
H2       0.13068    0.26623    0.65101   1.00
C5       0.10537    0.20790    0.65931   1.00
H2       0.10111    0.18088    0.64189   1.00
H2       0.07661    0.21739    0.67109   1.00
H2       0.12433    0.20141    0.68506   1.00
C5       0.22659    0.37450    0.50980   1.00
H2       0.23596    0.39654    0.48782   1.00
H2       0.25140    0.37058    0.53045   1.00
C5       0.19011    0.38851    0.53197   1.00
H2       0.19492    0.41850    0.54334   1.00
C5       0.26647    0.87594    0.63227   1.00
H2       0.23860    0.86964    0.64755   1.00
H2       0.25979    0.89946    0.61099   1.00
C5       0.29722    0.89004    0.66219   1.00
H2       0.29318    0.92157    0.66890   1.00
H2       0.32714    0.88547    0.65040   1.00
O_3      0.32069    0.75295    0.48000   1.00
C4       0.24958    0.74985    0.52100   1.00
C3c      0.24749    0.78471    0.54243   1.00
H1       0.24572    0.81231    0.52725   1.00
C3d      0.25130    0.71417    0.54135   1.00
C3       0.24820    0.78466    0.58354   1.00
O2       0.24126    0.81939    0.60248   1.00
C3       0.25276    0.71406    0.58227   1.00
H1       0.25548    0.68608    0.59657   1.00
C2       0.25111    0.74908    0.60439   1.00
C5       0.33992    0.71653    0.47879   1.00
H2       0.34682    0.70727    0.44838   1.00
H2       0.32185    0.69326    0.49266   1.00
C5       0.37794    0.72067    0.50122   1.00
H2       0.37113    0.73098    0.53129   1.00
H2       0.39590    0.74371    0.48691   1.00
C5       0.40015    0.68184    0.50254   1.00
H2       0.40681    0.67123    0.47260   1.00
H2       0.38280    0.65917    0.51803   1.00
H2       0.42825    0.68564    0.51830   1.00
C5       0.21961    0.66410    0.51105   1.00
C5       0.27702    0.83826    0.61070   1.00
H2       0.20397    0.68415    0.49088   1.00
H2       0.20084    0.65880    0.53712   1.00
H2       0.29270    0.84511    0.58300   1.00
H2       0.29693    0.81991    0.62895   1.00
H2       0.29428    0.87417    0.69055   1.00
H2       0.18370    0.63068    0.44250   1.00
H2       0.16426    0.61076    0.48766   1.00
C2       0.25198    0.74836    0.39605   1.00
C3       0.21592    0.74888    0.41597   1.00
O2       0.18190    0.73921    0.39674   1.00
C3       0.28674    0.75029    0.41826   1.00
H1       0.31477    0.75096    0.40385   1.00
C3a      0.21538    0.75027    0.45713   1.00
H1       0.18762    0.74840    0.47202   1.00
C3b      0.28612    0.75041    0.45922   1.00
C4       0.25028    0.75032    0.47900   1.00
O_3      0.25638    0.67928    0.52167   1.00
C5       0.16076    0.77322    0.38720   1.00
H2       0.15303    0.79021    0.41391   1.00
C5       0.12335    0.76005    0.36666   1.00
H2       0.17790    0.79238    0.36726   1.00
H2       0.10207    0.75039    0.38923   1.00
H2       0.13068    0.73377    0.34899   1.00
C5       0.10537    0.79210    0.34069   1.00
H2       0.10111    0.81912    0.35811   1.00
H2       0.07661    0.78261    0.32891   1.00
H2       0.12433    0.79859    0.31494   1.00
C5       0.22659    0.62550    0.49020   1.00
H2       0.23596    0.60346    0.51218   1.00
H2       0.25140    0.62942    0.46955   1.00
C5       0.19011    0.61149    0.46803   1.00
H2       0.19492    0.58150    0.45666   1.00
C5       0.37594    1.13227    0.26647   1.00
H2       0.36964    1.14755    0.23860   1.00
H2       0.39946    1.11099    0.25979   1.00
C5       0.39004    1.16219    0.29722   1.00
H2       0.42157    1.16890    0.29318   1.00
H2       0.38547    1.15040    0.32714   1.00
O_3      0.25295    0.98000    0.32069   1.00
C4       0.24985    1.02100    0.24958   1.00
C3c      0.28471    1.04243    0.24749   1.00
H1       0.31231    1.02725    0.24572   1.00
C3d      0.21417    1.04135    0.25130   1.00
C3       0.28466    1.08354    0.24820   1.00
O2       0.31939    1.10248    0.24126   1.00
C3       0.21406    1.08227    0.25276   1.00
H1       0.18608    1.09657    0.25548   1.00
C2       0.24908    1.10439    0.25111   1.00
C5       0.21653    0.97879    0.33992   1.00
H2       0.20727    0.94838    0.34682   1.00
H2       0.19326    0.99266    0.32185   1.00
C5       0.22067    1.00122    0.37794   1.00
H2       0.23098    1.03129    0.37113   1.00
H2       0.24371    0.98691    0.39590   1.00
C5       0.18184    1.00254    0.40015   1.00
H2       0.17123    0.97260    0.40681   1.00
H2       0.15917    1.01803    0.38280   1.00
H2       0.18564    1.01830    0.42825   1.00
C5       0.16410    1.01105    0.21961   1.00
C5       0.33826    1.11070    0.27702   1.00
H2       0.18415    0.99088    0.20397   1.00
H2       0.15880    1.03712    0.20084   1.00
H2       0.34511    1.08300    0.29270   1.00
H2       0.31991    1.12895    0.29693   1.00
H2       0.37417    1.19055    0.29428   1.00
H2       0.13068    0.94250    0.18370   1.00
H2       0.11076    0.98766    0.16426   1.00
C2       0.24836    0.89605    0.25198   1.00
C3       0.24888    0.91597    0.21592   1.00
O2       0.23921    0.89674    0.18190   1.00
C3       0.25029    0.91826    0.28674   1.00
H1       0.25096    0.90385    0.31477   1.00
C3a      0.25027    0.95713    0.21538   1.00
H1       0.24840    0.97202    0.18762   1.00
C3b      0.25041    0.95922    0.28612   1.00
C4       0.25032    0.97900    0.25028   1.00
O_3      0.17928    1.02167    0.25638   1.00
C5       0.27322    0.88720    0.16076   1.00
H2       0.29021    0.91391    0.15303   1.00
C5       0.26005    0.86666    0.12335   1.00
H2       0.29238    0.86726    0.17790   1.00
H2       0.25039    0.88923    0.10207   1.00
H2       0.23377    0.84899    0.13068   1.00
C5       0.29210    0.84069    0.10537   1.00
H2       0.31912    0.85811    0.10111   1.00
H2       0.28261    0.82891    0.07661   1.00
H2       0.29859    0.81494    0.12433   1.00
C5       0.12550    0.99020    0.22659   1.00
H2       0.10346    1.01218    0.23596   1.00
H2       0.12942    0.96955    0.25140   1.00
C5       0.11149    0.96803    0.19011   1.00
H2       0.08150    0.95666    0.19492   1.00
C5       -0.13227   0.76647    0.12406   1.00
H2       -0.14755   0.73860    0.13036   1.00
H2       -0.11099   0.75979    0.10054   1.00
C5       -0.16219   0.79722    0.10996   1.00
H2       -0.16890   0.79318    0.07843   1.00
H2       -0.15040   0.82714    0.11453   1.00
O_3      0.02000    0.82069    0.24705   1.00
C4       -0.02100   0.74958    0.25015   1.00
C3c      -0.04243   0.74749    0.21529   1.00
H1       -0.02725   0.74572    0.18769   1.00
C3d      -0.04135   0.75130    0.28583   1.00
C3       -0.08354   0.74820    0.21534   1.00
O2       -0.10248   0.74126    0.18061   1.00
C3       -0.08227   0.75276    0.28594   1.00
H1       -0.09657   0.75548    0.31392   1.00
C2       -0.10439   0.75111    0.25092   1.00
C5       0.02121    0.83992    0.28347   1.00
H2       0.05162    0.84682    0.29273   1.00
H2       0.00734    0.82185    0.30674   1.00
C5       -0.00122   0.87794    0.27933   1.00
H2       -0.03129   0.87113    0.26902   1.00
H2       0.01309    0.89590    0.25629   1.00
C5       -0.00254   0.90015    0.31816   1.00
H2       0.02740    0.90681    0.32877   1.00
H2       -0.01803   0.88280    0.34083   1.00
H2       -0.01830   0.92825    0.31436   1.00
C5       -0.01105   0.71961    0.33590   1.00
C5       -0.11070   0.77702    0.16174   1.00
H2       0.00912    0.70397    0.31585   1.00
H2       -0.03712   0.70084    0.34120   1.00
H2       -0.08300   0.79270    0.15489   1.00
H2       -0.12895   0.79693    0.18009   1.00
H2       -0.19055   0.79428    0.12583   1.00
H2       0.05750    0.68370    0.36932   1.00
H2       0.01234    0.66426    0.38924   1.00
C2       0.10395    0.75198    0.25164   1.00
C3       0.08403    0.71592    0.25112   1.00
O2       0.10326    0.68190    0.26079   1.00
C3       0.08174    0.78674    0.24971   1.00
H1       0.09615    0.81477    0.24904   1.00
C3a      0.04287    0.71538    0.24973   1.00
H1       0.02798    0.68762    0.25160   1.00
C3b      0.04078    0.78612    0.24959   1.00
C4       0.02100    0.75028    0.24968   1.00
O_3      -0.02167   0.75638    0.32072   1.00
C5       0.11280    0.66076    0.22678   1.00
H2       0.08609    0.65303    0.20979   1.00
C5       0.13334    0.62335    0.23995   1.00
H2       0.13274    0.67790    0.20762   1.00
H2       0.11077    0.60207    0.24961   1.00
H2       0.15101    0.63068    0.26623   1.00
C5       0.15931    0.60537    0.20790   1.00
H2       0.14189    0.60111    0.18088   1.00
H2       0.17109    0.57661    0.21739   1.00
H2       0.18506    0.62433    0.20141   1.00
C5       0.00980    0.72659    0.37450   1.00
H2       -0.01218   0.73596    0.39654   1.00
H2       0.03045    0.75140    0.37058   1.00
C5       0.03197    0.69011    0.38851   1.00
H2       0.04334    0.69492    0.41850   1.00
C5       0.63227    0.76647    0.37594   1.00
H2       0.64755    0.73860    0.36964   1.00
H2       0.61099    0.75979    0.39946   1.00
C5       0.66219    0.79722    0.39004   1.00
H2       0.66890    0.79318    0.42157   1.00
H2       0.65040    0.82714    0.38547   1.00
O_3      0.48000    0.82069    0.25295   1.00
C4       0.52100    0.74958    0.24985   1.00
C3c      0.54243    0.74749    0.28471   1.00
H1       0.52725    0.74572    0.31231   1.00
C3d      0.54135    0.75130    0.21417   1.00
C3       0.58354    0.74820    0.28466   1.00
O2       0.60248    0.74126    0.31939   1.00
C3       0.58227    0.75276    0.21406   1.00
H1       0.59657    0.75548    0.18608   1.00
C2       0.60439    0.75111    0.24908   1.00
C5       0.47879    0.83992    0.21653   1.00
H2       0.44838    0.84682    0.20727   1.00
H2       0.49266    0.82185    0.19326   1.00
C5       0.50122    0.87794    0.22067   1.00
H2       0.53129    0.87113    0.23098   1.00
H2       0.48691    0.89590    0.24371   1.00
C5       0.50254    0.90015    0.18184   1.00
H2       0.47260    0.90681    0.17123   1.00
H2       0.51803    0.88280    0.15917   1.00
H2       0.51830    0.92825    0.18564   1.00
C5       0.51105    0.71961    0.16410   1.00
C5       0.61070    0.77702    0.33826   1.00
H2       0.49088    0.70397    0.18415   1.00
H2       0.53712    0.70084    0.15880   1.00
H2       0.58300    0.79270    0.34511   1.00
H2       0.62895    0.79693    0.31991   1.00
H2       0.69055    0.79428    0.37417   1.00
H2       0.44250    0.68370    0.13068   1.00
H2       0.48766    0.66426    0.11076   1.00
C2       0.39605    0.75198    0.24836   1.00
C3       0.41597    0.71592    0.24888   1.00
O2       0.39674    0.68190    0.23921   1.00
C3       0.41826    0.78674    0.25029   1.00
H1       0.40385    0.81477    0.25096   1.00
C3a      0.45713    0.71538    0.25027   1.00
H1       0.47202    0.68762    0.24840   1.00
C3b      0.45922    0.78612    0.25041   1.00
C4       0.47900    0.75028    0.25032   1.00
O_3      0.52167    0.75638    0.17928   1.00
C5       0.38720    0.66076    0.27322   1.00
H2       0.41391    0.65303    0.29021   1.00
C5       0.36666    0.62335    0.26005   1.00
H2       0.36726    0.67790    0.29238   1.00
H2       0.38923    0.60207    0.25039   1.00
H2       0.34899    0.63068    0.23377   1.00
C5       0.34069    0.60537    0.29210   1.00
H2       0.35811    0.60111    0.31912   1.00
H2       0.32891    0.57661    0.28261   1.00
H2       0.31494    0.62433    0.29859   1.00
C5       0.49020    0.72659    0.12550   1.00
H2       0.51218    0.73596    0.10346   1.00
H2       0.46955    0.75140    0.12942   1.00
C5       0.46803    0.69011    0.11149   1.00
H2       0.45666    0.69492    0.08150   1.00
C5       0.12406    0.36773    0.26647   1.00
H2       0.13036    0.35245    0.23860   1.00
H2       0.10054    0.38901    0.25979   1.00
C5       0.10996    0.33781    0.29722   1.00
H2       0.07843    0.33110    0.29318   1.00
H2       0.11453    0.34960    0.32714   1.00
O_3      0.24705    0.52000    0.32069   1.00
C4       0.25015    0.47900    0.24958   1.00
C3c      0.21529    0.45757    0.24749   1.00
H1       0.18769    0.47275    0.24572   1.00
C3d      0.28583    0.45865    0.25130   1.00
C3       0.21534    0.41646    0.24820   1.00
O2       0.18061    0.39752    0.24126   1.00
C3       0.28594    0.41773    0.25276   1.00
H1       0.31392    0.40343    0.25548   1.00
C2       0.25092    0.39561    0.25111   1.00
C5       0.28347    0.52121    0.33992   1.00
H2       0.29273    0.55162    0.34682   1.00
H2       0.30674    0.50734    0.32185   1.00
C5       0.27933    0.49878    0.37794   1.00
H2       0.26902    0.46871    0.37113   1.00
H2       0.25629    0.51309    0.39590   1.00
C5       0.31816    0.49746    0.40015   1.00
H2       0.32877    0.52740    0.40681   1.00
H2       0.34083    0.48197    0.38280   1.00
H2       0.31436    0.48170    0.42825   1.00
C5       0.33590    0.48895    0.21961   1.00
C5       0.16174    0.38930    0.27702   1.00
H2       0.31585    0.50912    0.20397   1.00
H2       0.34120    0.46288    0.20084   1.00
H2       0.15489    0.41700    0.29270   1.00
H2       0.18009    0.37105    0.29693   1.00
H2       0.12583    0.30945    0.29428   1.00
H2       0.36932    0.55750    0.18370   1.00
H2       0.38924    0.51234    0.16426   1.00
C2       0.25164    0.60395    0.25198   1.00
C3       0.25112    0.58403    0.21592   1.00
O2       0.26079    0.60326    0.18190   1.00
C3       0.24971    0.58174    0.28674   1.00
H1       0.24904    0.59615    0.31477   1.00
C3a      0.24973    0.54287    0.21538   1.00
H1       0.25160    0.52798    0.18762   1.00
C3b      0.24959    0.54078    0.28612   1.00
C4       0.24968    0.52100    0.25028   1.00
O_3      0.32072    0.47833    0.25638   1.00
C5       0.22678    0.61280    0.16076   1.00
H2       0.20979    0.58609    0.15303   1.00
C5       0.23995    0.63334    0.12335   1.00
H2       0.20762    0.63274    0.17790   1.00
H2       0.24961    0.61077    0.10207   1.00
H2       0.26623    0.65101    0.13068   1.00
C5       0.20790    0.65931    0.10537   1.00
H2       0.18088    0.64189    0.10111   1.00
H2       0.21739    0.67109    0.07661   1.00
H2       0.20141    0.68506    0.12433   1.00
C5       0.37450    0.50980    0.22659   1.00
H2       0.39654    0.48782    0.23596   1.00
H2       0.37058    0.53045    0.25140   1.00
C5       0.38851    0.53197    0.19011   1.00
H2       0.41850    0.54334    0.19492   1.00
C5       0.26647    0.62406    -0.13227   1.00
H2       0.23860    0.63036    -0.14755   1.00
H2       0.25979    0.60054    -0.11099   1.00
C5       0.29722    0.60996    -0.16219   1.00
H2       0.29318    0.57843    -0.16890   1.00
H2       0.32714    0.61453    -0.15040   1.00
O_3      0.32069    0.74705    0.02000   1.00
C4       0.24958    0.75015    -0.02100   1.00
C3c      0.24749    0.71529    -0.04243   1.00
H1       0.24572    0.68769    -0.02725   1.00
C3d      0.25130    0.78583    -0.04135   1.00
C3       0.24820    0.71534    -0.08354   1.00
O2       0.24126    0.68061    -0.10248   1.00
C3       0.25276    0.78594    -0.08227   1.00
H1       0.25548    0.81392    -0.09657   1.00
C2       0.25111    0.75092    -0.10439   1.00
C5       0.33992    0.78347    0.02121   1.00
H2       0.34682    0.79273    0.05162   1.00
H2       0.32185    0.80674    0.00734   1.00
C5       0.37794    0.77933    -0.00122   1.00
H2       0.37113    0.76902    -0.03129   1.00
H2       0.39590    0.75629    0.01309   1.00
C5       0.40015    0.81816    -0.00254   1.00
H2       0.40681    0.82877    0.02740   1.00
H2       0.38280    0.84083    -0.01803   1.00
H2       0.42825    0.81436    -0.01830   1.00
C5       0.21961    0.83590    -0.01105   1.00
C5       0.27702    0.66174    -0.11070   1.00
H2       0.20397    0.81585    0.00912   1.00
H2       0.20084    0.84120    -0.03712   1.00
H2       0.29270    0.65489    -0.08300   1.00
H2       0.29693    0.68009    -0.12895   1.00
H2       0.29428    0.62583    -0.19055   1.00
H2       0.18370    0.86932    0.05750   1.00
H2       0.16426    0.88924    0.01234   1.00
C2       0.25198    0.75164    0.10395   1.00
C3       0.21592    0.75112    0.08403   1.00
O2       0.18190    0.76079    0.10326   1.00
C3       0.28674    0.74971    0.08174   1.00
H1       0.31477    0.74904    0.09615   1.00
C3a      0.21538    0.74973    0.04287   1.00
H1       0.18762    0.75160    0.02798   1.00
C3b      0.28612    0.74959    0.04078   1.00
C4       0.25028    0.74968    0.02100   1.00
O_3      0.25638    0.82072    -0.02167   1.00
C5       0.16076    0.72678    0.11280   1.00
H2       0.15303    0.70979    0.08609   1.00
C5       0.12335    0.73995    0.13334   1.00
H2       0.17790    0.70762    0.13274   1.00
H2       0.10207    0.74961    0.11077   1.00
H2       0.13068    0.76623    0.15101   1.00
C5       0.10537    0.70790    0.15931   1.00
H2       0.10111    0.68088    0.14189   1.00
H2       0.07661    0.71739    0.17109   1.00
H2       0.12433    0.70141    0.18506   1.00
C5       0.22659    0.87450    0.00980   1.00
H2       0.23596    0.89654    -0.01218   1.00
H2       0.25140    0.87058    0.03045   1.00
C5       0.19011    0.88851    0.03197   1.00
H2       0.19492    0.91850    0.04334   1.00
C5       0.76647    0.37594    0.63227   1.00
H2       0.73860    0.36964    0.64755   1.00
H2       0.75979    0.39946    0.61099   1.00
C5       0.79722    0.39004    0.66219   1.00
H2       0.79318    0.42157    0.66890   1.00
H2       0.82714    0.38547    0.65040   1.00
O_3      0.82069    0.25295    0.48000   1.00
C4       0.74958    0.24985    0.52100   1.00
C3c      0.74749    0.28471    0.54243   1.00
H1       0.74572    0.31231    0.52725   1.00
C3d      0.75130    0.21417    0.54135   1.00
C3       0.74820    0.28466    0.58354   1.00
O2       0.74126    0.31939    0.60248   1.00
C3       0.75276    0.21406    0.58227   1.00
H1       0.75548    0.18608    0.59657   1.00
C2       0.75111    0.24908    0.60439   1.00
C5       0.83992    0.21653    0.47879   1.00
H2       0.84682    0.20727    0.44838   1.00
H2       0.82185    0.19326    0.49266   1.00
C5       0.87794    0.22067    0.50122   1.00
H2       0.87113    0.23098    0.53129   1.00
H2       0.89590    0.24371    0.48691   1.00
C5       0.90015    0.18184    0.50254   1.00
H2       0.90681    0.17123    0.47260   1.00
H2       0.88280    0.15917    0.51803   1.00
H2       0.92825    0.18564    0.51830   1.00
C5       0.71961    0.16410    0.51105   1.00
C5       0.77702    0.33826    0.61070   1.00
H2       0.70397    0.18415    0.49088   1.00
H2       0.70084    0.15880    0.53712   1.00
H2       0.79270    0.34511    0.58300   1.00
H2       0.79693    0.31991    0.62895   1.00
H2       0.79428    0.37417    0.69055   1.00
H2       0.68370    0.13068    0.44250   1.00
H2       0.66426    0.11076    0.48766   1.00
C2       0.75198    0.24836    0.39605   1.00
C3       0.71592    0.24888    0.41597   1.00
O2       0.68190    0.23921    0.39674   1.00
C3       0.78674    0.25029    0.41826   1.00
H1       0.81477    0.25096    0.40385   1.00
C3a      0.71538    0.25027    0.45713   1.00
H1       0.68762    0.24840    0.47202   1.00
C3b      0.78612    0.25041    0.45922   1.00
C4       0.75028    0.25032    0.47900   1.00
O_3      0.75638    0.17928    0.52167   1.00
C5       0.66076    0.27322    0.38720   1.00
H2       0.65303    0.29021    0.41391   1.00
C5       0.62335    0.26005    0.36666   1.00
H2       0.67790    0.29238    0.36726   1.00
H2       0.60207    0.25039    0.38923   1.00
H2       0.63068    0.23377    0.34899   1.00
C5       0.60537    0.29210    0.34069   1.00
H2       0.60111    0.31912    0.35811   1.00
H2       0.57661    0.28261    0.32891   1.00
H2       0.62433    0.29859    0.31494   1.00
C5       0.72659    0.12550    0.49020   1.00
H2       0.73596    0.10346    0.51218   1.00
H2       0.75140    0.12942    0.46955   1.00
C5       0.69011    0.11149    0.46803   1.00
H2       0.69492    0.08150    0.45666   1.00
C5       0.87594    0.63227    0.26647   1.00
H2       0.86964    0.64755    0.23860   1.00
H2       0.89946    0.61099    0.25979   1.00
C5       0.89004    0.66219    0.29722   1.00
H2       0.92157    0.66890    0.29318   1.00
H2       0.88547    0.65040    0.32714   1.00
O_3      0.75295    0.48000    0.32069   1.00
C4       0.74985    0.52100    0.24958   1.00
C3c      0.78471    0.54243    0.24749   1.00
H1       0.81231    0.52725    0.24572   1.00
C3d      0.71417    0.54135    0.25130   1.00
C3       0.78466    0.58354    0.24820   1.00
O2       0.81939    0.60248    0.24126   1.00
C3       0.71406    0.58227    0.25276   1.00
H1       0.68608    0.59657    0.25548   1.00
C2       0.74908    0.60439    0.25111   1.00
C5       0.71653    0.47879    0.33992   1.00
H2       0.70727    0.44838    0.34682   1.00
H2       0.69326    0.49266    0.32185   1.00
C5       0.72067    0.50122    0.37794   1.00
H2       0.73098    0.53129    0.37113   1.00
H2       0.74371    0.48691    0.39590   1.00
C5       0.68184    0.50254    0.40015   1.00
H2       0.67123    0.47260    0.40681   1.00
H2       0.65917    0.51803    0.38280   1.00
H2       0.68564    0.51830    0.42825   1.00
C5       0.66410    0.51105    0.21961   1.00
C5       0.83826    0.61070    0.27702   1.00
H2       0.68415    0.49088    0.20397   1.00
H2       0.65880    0.53712    0.20084   1.00
H2       0.84511    0.58300    0.29270   1.00
H2       0.81991    0.62895    0.29693   1.00
H2       0.87417    0.69055    0.29428   1.00
H2       0.63068    0.44250    0.18370   1.00
H2       0.61076    0.48766    0.16426   1.00
C2       0.74836    0.39605    0.25198   1.00
C3       0.74888    0.41597    0.21592   1.00
O2       0.73921    0.39674    0.18190   1.00
C3       0.75029    0.41826    0.28674   1.00
H1       0.75096    0.40385    0.31477   1.00
C3a      0.75027    0.45713    0.21538   1.00
H1       0.74840    0.47202    0.18762   1.00
C3b      0.75041    0.45922    0.28612   1.00
C4       0.75032    0.47900    0.25028   1.00
O_3      0.67928    0.52167    0.25638   1.00
C5       0.77322    0.38720    0.16076   1.00
H2       0.79021    0.41391    0.15303   1.00
C5       0.76005    0.36666    0.12335   1.00
H2       0.79238    0.36726    0.17790   1.00
H2       0.75039    0.38923    0.10207   1.00
H2       0.73377    0.34899    0.13068   1.00
C5       0.79210    0.34069    0.10537   1.00
H2       0.81912    0.35811    0.10111   1.00
H2       0.78261    0.32891    0.07661   1.00
H2       0.79859    0.31494    0.12433   1.00
C5       0.62550    0.49020    0.22659   1.00
H2       0.60346    0.51218    0.23596   1.00
H2       0.62942    0.46955    0.25140   1.00
C5       0.61149    0.46803    0.19011   1.00
H2       0.58150    0.45666    0.19492   1.00
C5       0.36773    0.26647    0.12406   1.00
H2       0.35245    0.23860    0.13036   1.00
H2       0.38901    0.25979    0.10054   1.00
C5       0.33781    0.29722    0.10996   1.00
H2       0.33110    0.29318    0.07843   1.00
H2       0.34960    0.32714    0.11453   1.00
O_3      0.52000    0.32069    0.24705   1.00
C4       0.47900    0.24958    0.25015   1.00
C3c      0.45757    0.24749    0.21529   1.00
H1       0.47275    0.24572    0.18769   1.00
C3d      0.45865    0.25130    0.28583   1.00
C3       0.41646    0.24820    0.21534   1.00
O2       0.39752    0.24126    0.18061   1.00
C3       0.41773    0.25276    0.28594   1.00
H1       0.40343    0.25548    0.31392   1.00
C2       0.39561    0.25111    0.25092   1.00
C5       0.52121    0.33992    0.28347   1.00
H2       0.55162    0.34682    0.29273   1.00
H2       0.50734    0.32185    0.30674   1.00
C5       0.49878    0.37794    0.27933   1.00
H2       0.46871    0.37113    0.26902   1.00
H2       0.51309    0.39590    0.25629   1.00
C5       0.49746    0.40015    0.31816   1.00
H2       0.52740    0.40681    0.32877   1.00
H2       0.48197    0.38280    0.34083   1.00
H2       0.48170    0.42825    0.31436   1.00
C5       0.48895    0.21961    0.33590   1.00
C5       0.38930    0.27702    0.16174   1.00
H2       0.50912    0.20397    0.31585   1.00
H2       0.46288    0.20084    0.34120   1.00
H2       0.41700    0.29270    0.15489   1.00
H2       0.37105    0.29693    0.18009   1.00
H2       0.30945    0.29428    0.12583   1.00
H2       0.55750    0.18370    0.36932   1.00
H2       0.51234    0.16426    0.38924   1.00
C2       0.60395    0.25198    0.25164   1.00
C3       0.58403    0.21592    0.25112   1.00
O2       0.60326    0.18190    0.26079   1.00
C3       0.58174    0.28674    0.24971   1.00
H1       0.59615    0.31477    0.24904   1.00
C3a      0.54287    0.21538    0.24973   1.00
H1       0.52798    0.18762    0.25160   1.00
C3b      0.54078    0.28612    0.24959   1.00
C4       0.52100    0.25028    0.24968   1.00
O_3      0.47833    0.25638    0.32072   1.00
C5       0.61280    0.16076    0.22678   1.00
H2       0.58609    0.15303    0.20979   1.00
C5       0.63334    0.12335    0.23995   1.00
H2       0.63274    0.17790    0.20762   1.00
H2       0.61077    0.10207    0.24961   1.00
H2       0.65101    0.13068    0.26623   1.00
C5       0.65931    0.10537    0.20790   1.00
H2       0.64189    0.10111    0.18088   1.00
H2       0.67109    0.07661    0.21739   1.00
H2       0.68506    0.12433    0.20141   1.00
C5       0.50980    0.22659    0.37450   1.00
H2       0.48782    0.23596    0.39654   1.00
H2       0.53045    0.25140    0.37058   1.00
C5       0.53197    0.19011    0.38851   1.00
H2       0.54334    0.19492    0.41850   1.00
C5       1.13227    0.26647    0.37594   1.00
H2       1.14755    0.23860    0.36964   1.00
H2       1.11099    0.25979    0.39946   1.00
C5       1.16219    0.29722    0.39004   1.00
H2       1.16890    0.29318    0.42157   1.00
H2       1.15040    0.32714    0.38547   1.00
O_3      0.98000    0.32069    0.25295   1.00
C4       1.02100    0.24958    0.24985   1.00
C3c      1.04243    0.24749    0.28471   1.00
H1       1.02725    0.24572    0.31231   1.00
C3d      1.04135    0.25130    0.21417   1.00
C3       1.08354    0.24820    0.28466   1.00
O2       1.10248    0.24126    0.31939   1.00
C3       1.08227    0.25276    0.21406   1.00
H1       1.09657    0.25548    0.18608   1.00
C2       1.10439    0.25111    0.24908   1.00
C5       0.97879    0.33992    0.21653   1.00
H2       0.94838    0.34682    0.20727   1.00
H2       0.99266    0.32185    0.19326   1.00
C5       1.00122    0.37794    0.22067   1.00
H2       1.03129    0.37113    0.23098   1.00
H2       0.98691    0.39590    0.24371   1.00
C5       1.00254    0.40015    0.18184   1.00
H2       0.97260    0.40681    0.17123   1.00
H2       1.01803    0.38280    0.15917   1.00
H2       1.01830    0.42825    0.18564   1.00
C5       1.01105    0.21961    0.16410   1.00
C5       1.11070    0.27702    0.33826   1.00
H2       0.99088    0.20397    0.18415   1.00
H2       1.03712    0.20084    0.15880   1.00
H2       1.08300    0.29270    0.34511   1.00
H2       1.12895    0.29693    0.31991   1.00
H2       1.19055    0.29428    0.37417   1.00
H2       0.94250    0.18370    0.13068   1.00
H2       0.98766    0.16426    0.11076   1.00
C2       0.89605    0.25198    0.24836   1.00
C3       0.91597    0.21592    0.24888   1.00
O2       0.89674    0.18190    0.23921   1.00
C3       0.91826    0.28674    0.25029   1.00
H1       0.90385    0.31477    0.25096   1.00
C3a      0.95713    0.21538    0.25027   1.00
H1       0.97202    0.18762    0.24840   1.00
C3b      0.95922    0.28612    0.25041   1.00
C4       0.97900    0.25028    0.25032   1.00
O_3      1.02167    0.25638    0.17928   1.00
C5       0.88720    0.16076    0.27322   1.00
H2       0.91391    0.15303    0.29021   1.00
C5       0.86666    0.12335    0.26005   1.00
H2       0.86726    0.17790    0.29238   1.00
H2       0.88923    0.10207    0.25039   1.00
H2       0.84899    0.13068    0.23377   1.00
C5       0.84069    0.10537    0.29210   1.00
H2       0.85811    0.10111    0.31912   1.00
H2       0.82891    0.07661    0.28261   1.00
H2       0.81494    0.12433    0.29859   1.00
C5       0.99020    0.22659    0.12550   1.00
H2       1.01218    0.23596    0.10346   1.00
H2       0.96955    0.25140    0.12942   1.00
C5       0.96803    0.19011    0.11149   1.00
H2       0.95666    0.19492    0.08150   1.00
C5       0.62406    -0.13227   0.26647   1.00
H2       0.63036    -0.14755   0.23860   1.00
H2       0.60054    -0.11099   0.25979   1.00
C5       0.60996    -0.16219   0.29722   1.00
H2       0.57843    -0.16890   0.29318   1.00
H2       0.61453    -0.15040   0.32714   1.00
O_3      0.74705    0.02000    0.32069   1.00
C4       0.75015    -0.02100   0.24958   1.00
C3c      0.71529    -0.04243   0.24749   1.00
H1       0.68769    -0.02725   0.24572   1.00
C3d      0.78583    -0.04135   0.25130   1.00
C3       0.71534    -0.08354   0.24820   1.00
O2       0.68061    -0.10248   0.24126   1.00
C3       0.78594    -0.08227   0.25276   1.00
H1       0.81392    -0.09657   0.25548   1.00
C2       0.75092    -0.10439   0.25111   1.00
C5       0.78347    0.02121    0.33992   1.00
H2       0.79273    0.05162    0.34682   1.00
H2       0.80674    0.00734    0.32185   1.00
C5       0.77933    -0.00122   0.37794   1.00
H2       0.76902    -0.03129   0.37113   1.00
H2       0.75629    0.01309    0.39590   1.00
C5       0.81816    -0.00254   0.40015   1.00
H2       0.82877    0.02740    0.40681   1.00
H2       0.84083    -0.01803   0.38280   1.00
H2       0.81436    -0.01830   0.42825   1.00
C5       0.83590    -0.01105   0.21961   1.00
C5       0.66174    -0.11070   0.27702   1.00
H2       0.81585    0.00912    0.20397   1.00
H2       0.84120    -0.03712   0.20084   1.00
H2       0.65489    -0.08300   0.29270   1.00
H2       0.68009    -0.12895   0.29693   1.00
H2       0.62583    -0.19055   0.29428   1.00
H2       0.86932    0.05750    0.18370   1.00
H2       0.88924    0.01234    0.16426   1.00
C2       0.75164    0.10395    0.25198   1.00
C3       0.75112    0.08403    0.21592   1.00
O2       0.76079    0.10326    0.18190   1.00
C3       0.74971    0.08174    0.28674   1.00
H1       0.74904    0.09615    0.31477   1.00
C3a      0.74973    0.04287    0.21538   1.00
H1       0.75160    0.02798    0.18762   1.00
C3b      0.74959    0.04078    0.28612   1.00
C4       0.74968    0.02100    0.25028   1.00
O_3      0.82072    -0.02167   0.25638   1.00
C5       0.72678    0.11280    0.16076   1.00
H2       0.70979    0.08609    0.15303   1.00
C5       0.73995    0.13334    0.12335   1.00
H2       0.70762    0.13274    0.17790   1.00
H2       0.74961    0.11077    0.10207   1.00
H2       0.76623    0.15101    0.13068   1.00
C5       0.70790    0.15931    0.10537   1.00
H2       0.68088    0.14189    0.10111   1.00
H2       0.71739    0.17109    0.07661   1.00
H2       0.70141    0.18506    0.12433   1.00
C5       0.87450    0.00980    0.22659   1.00
H2       0.89654    -0.01218   0.23596   1.00
H2       0.87058    0.03045    0.25140   1.00
C5       0.88851    0.03197    0.19011   1.00
H2       0.91850    0.04334    0.19492   1.00
C5       0.76647    0.12406    -0.13227   1.00
H2       0.73860    0.13036    -0.14755   1.00
H2       0.75979    0.10054    -0.11099   1.00
C5       0.79722    0.10996    -0.16219   1.00
H2       0.79318    0.07843    -0.16890   1.00
H2       0.82714    0.11453    -0.15040   1.00
O_3      0.82069    0.24705    0.02000   1.00
C4       0.74958    0.25015    -0.02100   1.00
C3c      0.74749    0.21529    -0.04243   1.00
H1       0.74572    0.18769    -0.02725   1.00
C3d      0.75130    0.28583    -0.04135   1.00
C3       0.74820    0.21534    -0.08354   1.00
O2       0.74126    0.18061    -0.10248   1.00
C3       0.75276    0.28594    -0.08227   1.00
H1       0.75548    0.31392    -0.09657   1.00
C2       0.75111    0.25092    -0.10439   1.00
C5       0.83992    0.28347    0.02121   1.00
H2       0.84682    0.29273    0.05162   1.00
H2       0.82185    0.30674    0.00734   1.00
C5       0.87794    0.27933    -0.00122   1.00
H2       0.87113    0.26902    -0.03129   1.00
H2       0.89590    0.25629    0.01309   1.00
C5       0.90015    0.31816    -0.00254   1.00
H2       0.90681    0.32877    0.02740   1.00
H2       0.88280    0.34083    -0.01803   1.00
H2       0.92825    0.31436    -0.01830   1.00
C5       0.71961    0.33590    -0.01105   1.00
C5       0.77702    0.16174    -0.11070   1.00
H2       0.70397    0.31585    0.00912   1.00
H2       0.70084    0.34120    -0.03712   1.00
H2       0.79270    0.15489    -0.08300   1.00
H2       0.79693    0.18009    -0.12895   1.00
H2       0.79428    0.12583    -0.19055   1.00
H2       0.68370    0.36932    0.05750   1.00
H2       0.66426    0.38924    0.01234   1.00
C2       0.75198    0.25164    0.10395   1.00
C3       0.71592    0.25112    0.08403   1.00
O2       0.68190    0.26079    0.10326   1.00
C3       0.78674    0.24971    0.08174   1.00
H1       0.81477    0.24904    0.09615   1.00
C3a      0.71538    0.24973    0.04287   1.00
H1       0.68762    0.25160    0.02798   1.00
C3b      0.78612    0.24959    0.04078   1.00
C4       0.75028    0.24968    0.02100   1.00
O_3      0.75638    0.32072    -0.02167   1.00
C5       0.66076    0.22678    0.11280   1.00
H2       0.65303    0.20979    0.08609   1.00
C5       0.62335    0.23995    0.13334   1.00
H2       0.67790    0.20762    0.13274   1.00
H2       0.60207    0.24961    0.11077   1.00
H2       0.63068    0.26623    0.15101   1.00
C5       0.60537    0.20790    0.15931   1.00
H2       0.60111    0.18088    0.14189   1.00
H2       0.57661    0.21739    0.17109   1.00
H2       0.62433    0.20141    0.18506   1.00
C5       0.72659    0.37450    0.00980   1.00
H2       0.73596    0.39654    -0.01218   1.00
H2       0.75140    0.37058    0.03045   1.00
C5       0.69011    0.38851    0.03197   1.00
H2       0.69492    0.41850    0.04334   1.00
C5       0.93147    1.04094    1.29727   1.00
H2       0.90360    1.03464    1.31255   1.00
H2       0.92479    1.06446    1.27599   1.00
C5       0.96222    1.05504    1.32719   1.00
H2       0.95818    1.08657    1.33390   1.00
H2       0.99214    1.05047    1.31540   1.00
O_3      0.98569    0.91795    1.14500   1.00
C4       0.91458    0.91485    1.18600   1.00
C3c      0.91249    0.94971    1.20743   1.00
H1       0.91072    0.97731    1.19225   1.00
C3d      0.91630    0.87917    1.20635   1.00
C3       0.91320    0.94966    1.24854   1.00
O2       0.90626    0.98439    1.26748   1.00
C3       0.91776    0.87906    1.24727   1.00
H1       0.92048    0.85108    1.26157   1.00
C2       0.91611    0.91408    1.26939   1.00
C5       1.00492    0.88153    1.14379   1.00
H2       1.01182    0.87227    1.11338   1.00
H2       0.98685    0.85826    1.15766   1.00
C5       1.04294    0.88567    1.16622   1.00
H2       1.03613    0.89598    1.19629   1.00
H2       1.06090    0.90871    1.15191   1.00
C5       1.06515    0.84684    1.16754   1.00
H2       1.07181    0.83623    1.13760   1.00
H2       1.04780    0.82417    1.18303   1.00
H2       1.09325    0.85064    1.18330   1.00
C5       0.88461    0.82910    1.17605   1.00
C5       0.94202    1.00326    1.27570   1.00
H2       0.86897    0.84915    1.15588   1.00
H2       0.86584    0.82380    1.20212   1.00
H2       0.95770    1.01011    1.24800   1.00
H2       0.96193    0.98491    1.29395   1.00
H2       0.95928    1.03917    1.35555   1.00
H2       0.84870    0.79568    1.10750   1.00
H2       0.82926    0.77576    1.15266   1.00
C2       0.91698    0.91336    1.06105   1.00
C3       0.88092    0.91388    1.08097   1.00
O2       0.84690    0.90421    1.06174   1.00
C3       0.95174    0.91529    1.08326   1.00
H1       0.97977    0.91596    1.06885   1.00
C3a      0.88038    0.91527    1.12213   1.00
H1       0.85262    0.91340    1.13702   1.00
C3b      0.95112    0.91541    1.12422   1.00
C4       0.91528    0.91532    1.14400   1.00
O_3      0.92138    0.84428    1.18667   1.00
C5       0.82576    0.93822    1.05220   1.00
H2       0.81803    0.95521    1.07891   1.00
C5       0.78835    0.92505    1.03166   1.00
H2       0.84290    0.95738    1.03226   1.00
H2       0.76707    0.91539    1.05423   1.00
H2       0.79568    0.89877    1.01399   1.00
C5       0.77037    0.95710    1.00569   1.00
H2       0.76611    0.98412    1.02311   1.00
H2       0.74161    0.94761    0.99391   1.00
H2       0.78933    0.96359    0.97994   1.00
C5       0.89159    0.79050    1.15520   1.00
H2       0.90096    0.76846    1.17718   1.00
H2       0.91640    0.79442    1.13455   1.00
C5       0.85511    0.77649    1.13303   1.00
H2       0.85992    0.74650    1.12166   1.00
C5       1.04094    1.29727    0.93147   1.00
H2       1.03464    1.31255    0.90360   1.00
H2       1.06446    1.27599    0.92479   1.00
C5       1.05504    1.32719    0.96222   1.00
H2       1.08657    1.33390    0.95818   1.00
H2       1.05047    1.31540    0.99214   1.00
O_3      0.91795    1.14500    0.98569   1.00
C4       0.91485    1.18600    0.91458   1.00
C3c      0.94971    1.20743    0.91249   1.00
H1       0.97731    1.19225    0.91072   1.00
C3d      0.87917    1.20635    0.91630   1.00
C3       0.94966    1.24854    0.91320   1.00
O2       0.98439    1.26748    0.90626   1.00
C3       0.87906    1.24727    0.91776   1.00
H1       0.85108    1.26157    0.92048   1.00
C2       0.91408    1.26939    0.91611   1.00
C5       0.88153    1.14379    1.00492   1.00
H2       0.87227    1.11338    1.01182   1.00
H2       0.85826    1.15766    0.98685   1.00
C5       0.88567    1.16622    1.04294   1.00
H2       0.89598    1.19629    1.03613   1.00
H2       0.90871    1.15191    1.06090   1.00
C5       0.84684    1.16754    1.06515   1.00
H2       0.83623    1.13760    1.07181   1.00
H2       0.82417    1.18303    1.04780   1.00
H2       0.85064    1.18330    1.09325   1.00
C5       0.82910    1.17605    0.88461   1.00
C5       1.00326    1.27570    0.94202   1.00
H2       0.84915    1.15588    0.86897   1.00
H2       0.82380    1.20212    0.86584   1.00
H2       1.01011    1.24800    0.95770   1.00
H2       0.98491    1.29395    0.96193   1.00
H2       1.03917    1.35555    0.95928   1.00
H2       0.79568    1.10750    0.84870   1.00
H2       0.77576    1.15266    0.82926   1.00
C2       0.91336    1.06105    0.91698   1.00
C3       0.91388    1.08097    0.88092   1.00
O2       0.90421    1.06174    0.84690   1.00
C3       0.91529    1.08326    0.95174   1.00
H1       0.91596    1.06885    0.97977   1.00
C3a      0.91527    1.12213    0.88038   1.00
H1       0.91340    1.13702    0.85262   1.00
C3b      0.91541    1.12422    0.95112   1.00
C4       0.91532    1.14400    0.91528   1.00
O_3      0.84428    1.18667    0.92138   1.00
C5       0.93822    1.05220    0.82576   1.00
H2       0.95521    1.07891    0.81803   1.00
C5       0.92505    1.03166    0.78835   1.00
H2       0.95738    1.03226    0.84290   1.00
H2       0.91539    1.05423    0.76707   1.00
H2       0.89877    1.01399    0.79568   1.00
C5       0.95710    1.00569    0.77037   1.00
H2       0.98412    1.02311    0.76611   1.00
H2       0.94761    0.99391    0.74161   1.00
H2       0.96359    0.97994    0.78933   1.00
C5       0.79050    1.15520    0.89159   1.00
H2       0.76846    1.17718    0.90096   1.00
H2       0.79442    1.13455    0.91640   1.00
C5       0.77649    1.13303    0.85511   1.00
H2       0.74650    1.12166    0.85992   1.00
C5       0.53273    0.93147    0.78906   1.00
H2       0.51745    0.90360    0.79536   1.00
H2       0.55401    0.92479    0.76554   1.00
C5       0.50281    0.96222    0.77496   1.00
H2       0.49610    0.95818    0.74343   1.00
H2       0.51460    0.99214    0.77953   1.00
O_3      0.68500    0.98569    0.91205   1.00
C4       0.64400    0.91458    0.91515   1.00
C3c      0.62257    0.91249    0.88029   1.00
H1       0.63775    0.91072    0.85269   1.00
C3d      0.62365    0.91630    0.95083   1.00
C3       0.58146    0.91320    0.88034   1.00
O2       0.56252    0.90626    0.84561   1.00
C3       0.58273    0.91776    0.95094   1.00
H1       0.56843    0.92048    0.97892   1.00
C2       0.56061    0.91611    0.91592   1.00
C5       0.68621    1.00492    0.94847   1.00
H2       0.71662    1.01182    0.95773   1.00
H2       0.67234    0.98685    0.97174   1.00
C5       0.66378    1.04294    0.94433   1.00
H2       0.63371    1.03613    0.93402   1.00
H2       0.67809    1.06090    0.92129   1.00
C5       0.66246    1.06515    0.98316   1.00
H2       0.69240    1.07181    0.99377   1.00
H2       0.64697    1.04780    1.00583   1.00
H2       0.64670    1.09325    0.97936   1.00
C5       0.65395    0.88461    1.00090   1.00
C5       0.55430    0.94202    0.82674   1.00
H2       0.67412    0.86897    0.98085   1.00
H2       0.62788    0.86584    1.00620   1.00
H2       0.58200    0.95770    0.81989   1.00
H2       0.53605    0.96193    0.84509   1.00
H2       0.47445    0.95928    0.79083   1.00
H2       0.72250    0.84870    1.03432   1.00
H2       0.67734    0.82926    1.05424   1.00
C2       0.76895    0.91698    0.91664   1.00
C3       0.74903    0.88092    0.91612   1.00
O2       0.76826    0.84690    0.92579   1.00
C3       0.74674    0.95174    0.91471   1.00
H1       0.76115    0.97977    0.91404   1.00
C3a      0.70787    0.88038    0.91473   1.00
H1       0.69298    0.85262    0.91660   1.00
C3b      0.70578    0.95112    0.91459   1.00
C4       0.68600    0.91528    0.91468   1.00
O_3      0.64333    0.92138    0.98572   1.00
C5       0.77780    0.82576    0.89178   1.00
H2       0.75109    0.81803    0.87479   1.00
C5       0.79834    0.78835    0.90495   1.00
H2       0.79774    0.84290    0.87262   1.00
H2       0.77577    0.76707    0.91461   1.00
H2       0.81601    0.79568    0.93123   1.00
C5       0.82431    0.77037    0.87290   1.00
H2       0.80689    0.76611    0.84588   1.00
H2       0.83609    0.74161    0.88239   1.00
H2       0.85006    0.78933    0.86641   1.00
C5       0.67480    0.89159    1.03950   1.00
H2       0.65282    0.90096    1.06154   1.00
H2       0.69545    0.91640    1.03558   1.00
C5       0.69697    0.85511    1.05351   1.00
H2       0.70834    0.85992    1.08350   1.00
C5       1.29727    0.93147    1.04094   1.00
H2       1.31255    0.90360    1.03464   1.00
H2       1.27599    0.92479    1.06446   1.00
C5       1.32719    0.96222    1.05504   1.00
H2       1.33390    0.95818    1.08657   1.00
H2       1.31540    0.99214    1.05047   1.00
O_3      1.14500    0.98569    0.91795   1.00
C4       1.18600    0.91458    0.91485   1.00
C3c      1.20743    0.91249    0.94971   1.00
H1       1.19225    0.91072    0.97731   1.00
C3d      1.20635    0.91630    0.87917   1.00
C3       1.24854    0.91320    0.94966   1.00
O2       1.26748    0.90626    0.98439   1.00
C3       1.24727    0.91776    0.87906   1.00
H1       1.26157    0.92048    0.85108   1.00
C2       1.26939    0.91611    0.91408   1.00
C5       1.14379    1.00492    0.88153   1.00
H2       1.11338    1.01182    0.87227   1.00
H2       1.15766    0.98685    0.85826   1.00
C5       1.16622    1.04294    0.88567   1.00
H2       1.19629    1.03613    0.89598   1.00
H2       1.15191    1.06090    0.90871   1.00
C5       1.16754    1.06515    0.84684   1.00
H2       1.13760    1.07181    0.83623   1.00
H2       1.18303    1.04780    0.82417   1.00
H2       1.18330    1.09325    0.85064   1.00
C5       1.17605    0.88461    0.82910   1.00
C5       1.27570    0.94202    1.00326   1.00
H2       1.15588    0.86897    0.84915   1.00
H2       1.20212    0.86584    0.82380   1.00
H2       1.24800    0.95770    1.01011   1.00
H2       1.29395    0.96193    0.98491   1.00
H2       1.35555    0.95928    1.03917   1.00
H2       1.10750    0.84870    0.79568   1.00
H2       1.15266    0.82926    0.77576   1.00
C2       1.06105    0.91698    0.91336   1.00
C3       1.08097    0.88092    0.91388   1.00
O2       1.06174    0.84690    0.90421   1.00
C3       1.08326    0.95174    0.91529   1.00
H1       1.06885    0.97977    0.91596   1.00
C3a      1.12213    0.88038    0.91527   1.00
H1       1.13702    0.85262    0.91340   1.00
C3b      1.12422    0.95112    0.91541   1.00
C4       1.14400    0.91528    0.91532   1.00
O_3      1.18667    0.92138    0.84428   1.00
C5       1.05220    0.82576    0.93822   1.00
H2       1.07891    0.81803    0.95521   1.00
C5       1.03166    0.78835    0.92505   1.00
H2       1.03226    0.84290    0.95738   1.00
H2       1.05423    0.76707    0.91539   1.00
H2       1.01399    0.79568    0.89877   1.00
C5       1.00569    0.77037    0.95710   1.00
H2       1.02311    0.76611    0.98412   1.00
H2       0.99391    0.74161    0.94761   1.00
H2       0.97994    0.78933    0.96359   1.00
C5       1.15520    0.89159    0.79050   1.00
H2       1.17718    0.90096    0.76846   1.00
H2       1.13455    0.91640    0.79442   1.00
C5       1.13303    0.85511    0.77649   1.00
H2       1.12166    0.85992    0.74650   1.00
C5       0.78906    0.53273    0.93147   1.00
H2       0.79536    0.51745    0.90360   1.00
H2       0.76554    0.55401    0.92479   1.00
C5       0.77496    0.50281    0.96222   1.00
H2       0.74343    0.49610    0.95818   1.00
H2       0.77953    0.51460    0.99214   1.00
O_3      0.91205    0.68500    0.98569   1.00
C4       0.91515    0.64400    0.91458   1.00
C3c      0.88029    0.62257    0.91249   1.00
H1       0.85269    0.63775    0.91072   1.00
C3d      0.95083    0.62365    0.91630   1.00
C3       0.88034    0.58146    0.91320   1.00
O2       0.84561    0.56252    0.90626   1.00
C3       0.95094    0.58273    0.91776   1.00
H1       0.97892    0.56843    0.92048   1.00
C2       0.91592    0.56061    0.91611   1.00
C5       0.94847    0.68621    1.00492   1.00
H2       0.95773    0.71662    1.01182   1.00
H2       0.97174    0.67234    0.98685   1.00
C5       0.94433    0.66378    1.04294   1.00
H2       0.93402    0.63371    1.03613   1.00
H2       0.92129    0.67809    1.06090   1.00
C5       0.98316    0.66246    1.06515   1.00
H2       0.99377    0.69240    1.07181   1.00
H2       1.00583    0.64697    1.04780   1.00
H2       0.97936    0.64670    1.09325   1.00
C5       1.00090    0.65395    0.88461   1.00
C5       0.82674    0.55430    0.94202   1.00
H2       0.98085    0.67412    0.86897   1.00
H2       1.00620    0.62788    0.86584   1.00
H2       0.81989    0.58200    0.95770   1.00
H2       0.84509    0.53605    0.96193   1.00
H2       0.79083    0.47445    0.95928   1.00
H2       1.03432    0.72250    0.84870   1.00
H2       1.05424    0.67734    0.82926   1.00
C2       0.91664    0.76895    0.91698   1.00
C3       0.91612    0.74903    0.88092   1.00
O2       0.92579    0.76826    0.84690   1.00
C3       0.91471    0.74674    0.95174   1.00
H1       0.91404    0.76115    0.97977   1.00
C3a      0.91473    0.70787    0.88038   1.00
H1       0.91660    0.69298    0.85262   1.00
C3b      0.91459    0.70578    0.95112   1.00
C4       0.91468    0.68600    0.91528   1.00
O_3      0.98572    0.64333    0.92138   1.00
C5       0.89178    0.77780    0.82576   1.00
H2       0.87479    0.75109    0.81803   1.00
C5       0.90495    0.79834    0.78835   1.00
H2       0.87262    0.79774    0.84290   1.00
H2       0.91461    0.77577    0.76707   1.00
H2       0.93123    0.81601    0.79568   1.00
C5       0.87290    0.82431    0.77037   1.00
H2       0.84588    0.80689    0.76611   1.00
H2       0.88239    0.83609    0.74161   1.00
H2       0.86641    0.85006    0.78933   1.00
C5       1.03950    0.67480    0.89159   1.00
H2       1.06154    0.65282    0.90096   1.00
H2       1.03558    0.69545    0.91640   1.00
C5       1.05351    0.69697    0.85511   1.00
H2       1.08350    0.70834    0.85992   1.00
C5       0.93147    0.78906    0.53273   1.00
H2       0.90360    0.79536    0.51745   1.00
H2       0.92479    0.76554    0.55401   1.00
C5       0.96222    0.77496    0.50281   1.00
H2       0.95818    0.74343    0.49610   1.00
H2       0.99214    0.77953    0.51460   1.00
O_3      0.98569    0.91205    0.68500   1.00
C4       0.91458    0.91515    0.64400   1.00
C3c      0.91249    0.88029    0.62257   1.00
H1       0.91072    0.85269    0.63775   1.00
C3d      0.91630    0.95083    0.62365   1.00
C3       0.91320    0.88034    0.58146   1.00
O2       0.90626    0.84561    0.56252   1.00
C3       0.91776    0.95094    0.58273   1.00
H1       0.92048    0.97892    0.56843   1.00
C2       0.91611    0.91592    0.56061   1.00
C5       1.00492    0.94847    0.68621   1.00
H2       1.01182    0.95773    0.71662   1.00
H2       0.98685    0.97174    0.67234   1.00
C5       1.04294    0.94433    0.66378   1.00
H2       1.03613    0.93402    0.63371   1.00
H2       1.06090    0.92129    0.67809   1.00
C5       1.06515    0.98316    0.66246   1.00
H2       1.07181    0.99377    0.69240   1.00
H2       1.04780    1.00583    0.64697   1.00
H2       1.09325    0.97936    0.64670   1.00
C5       0.88461    1.00090    0.65395   1.00
C5       0.94202    0.82674    0.55430   1.00
H2       0.86897    0.98085    0.67412   1.00
H2       0.86584    1.00620    0.62788   1.00
H2       0.95770    0.81989    0.58200   1.00
H2       0.96193    0.84509    0.53605   1.00
H2       0.95928    0.79083    0.47445   1.00
H2       0.84870    1.03432    0.72250   1.00
H2       0.82926    1.05424    0.67734   1.00
C2       0.91698    0.91664    0.76895   1.00
C3       0.88092    0.91612    0.74903   1.00
O2       0.84690    0.92579    0.76826   1.00
C3       0.95174    0.91471    0.74674   1.00
H1       0.97977    0.91404    0.76115   1.00
C3a      0.88038    0.91473    0.70787   1.00
H1       0.85262    0.91660    0.69298   1.00
C3b      0.95112    0.91459    0.70578   1.00
C4       0.91528    0.91468    0.68600   1.00
O_3      0.92138    0.98572    0.64333   1.00
C5       0.82576    0.89178    0.77780   1.00
H2       0.81803    0.87479    0.75109   1.00
C5       0.78835    0.90495    0.79834   1.00
H2       0.84290    0.87262    0.79774   1.00
H2       0.76707    0.91461    0.77577   1.00
H2       0.79568    0.93123    0.81601   1.00
C5       0.77037    0.87290    0.82431   1.00
H2       0.76611    0.84588    0.80689   1.00
H2       0.74161    0.88239    0.83609   1.00
H2       0.78933    0.86641    0.85006   1.00
C5       0.89159    1.03950    0.67480   1.00
H2       0.90096    1.06154    0.65282   1.00
H2       0.91640    1.03558    0.69545   1.00
C5       0.85511    1.05351    0.69697   1.00
H2       0.85992    1.08350    0.70834   1.00
C5       0.43147    0.54094    1.29727   1.00
H2       0.40360    0.53464    1.31255   1.00
H2       0.42479    0.56446    1.27599   1.00
C5       0.46222    0.55504    1.32719   1.00
H2       0.45818    0.58657    1.33390   1.00
H2       0.49214    0.55047    1.31540   1.00
O_3      0.48569    0.41795    1.14500   1.00
C4       0.41458    0.41485    1.18600   1.00
C3c      0.41249    0.44971    1.20743   1.00
H1       0.41072    0.47731    1.19225   1.00
C3d      0.41630    0.37917    1.20635   1.00
C3       0.41320    0.44966    1.24854   1.00
O2       0.40626    0.48439    1.26748   1.00
C3       0.41776    0.37906    1.24727   1.00
H1       0.42048    0.35108    1.26157   1.00
C2       0.41611    0.41408    1.26939   1.00
C5       0.50492    0.38153    1.14379   1.00
H2       0.51182    0.37227    1.11338   1.00
H2       0.48685    0.35826    1.15766   1.00
C5       0.54294    0.38567    1.16622   1.00
H2       0.53613    0.39598    1.19629   1.00
H2       0.56090    0.40871    1.15191   1.00
C5       0.56515    0.34684    1.16754   1.00
H2       0.57181    0.33623    1.13760   1.00
H2       0.54780    0.32417    1.18303   1.00
H2       0.59325    0.35064    1.18330   1.00
C5       0.38461    0.32910    1.17605   1.00
C5       0.44202    0.50326    1.27570   1.00
H2       0.36897    0.34915    1.15588   1.00
H2       0.36584    0.32380    1.20212   1.00
H2       0.45770    0.51011    1.24800   1.00
H2       0.46193    0.48491    1.29395   1.00
H2       0.45928    0.53917    1.35555   1.00
H2       0.34870    0.29568    1.10750   1.00
H2       0.32926    0.27576    1.15266   1.00
C2       0.41698    0.41336    1.06105   1.00
C3       0.38092    0.41388    1.08097   1.00
O2       0.34690    0.40421    1.06174   1.00
C3       0.45174    0.41529    1.08326   1.00
H1       0.47977    0.41596    1.06885   1.00
C3a      0.38038    0.41527    1.12213   1.00
H1       0.35262    0.41340    1.13702   1.00
C3b      0.45112    0.41541    1.12422   1.00
C4       0.41528    0.41532    1.14400   1.00
O_3      0.42138    0.34428    1.18667   1.00
C5       0.32576    0.43822    1.05220   1.00
H2       0.31803    0.45521    1.07891   1.00
C5       0.28835    0.42505    1.03166   1.00
H2       0.34290    0.45738    1.03226   1.00
H2       0.26707    0.41539    1.05423   1.00
H2       0.29568    0.39877    1.01399   1.00
C5       0.27037    0.45710    1.00569   1.00
H2       0.26611    0.48412    1.02311   1.00
H2       0.24161    0.44761    0.99391   1.00
H2       0.28933    0.46359    0.97994   1.00
C5       0.39159    0.29050    1.15520   1.00
H2       0.40096    0.26846    1.17718   1.00
H2       0.41640    0.29442    1.13455   1.00
C5       0.35511    0.27649    1.13303   1.00
H2       0.35992    0.24650    1.12166   1.00
C5       0.54094    0.79727    0.93147   1.00
H2       0.53464    0.81255    0.90360   1.00
H2       0.56446    0.77599    0.92479   1.00
C5       0.55504    0.82719    0.96222   1.00
H2       0.58657    0.83390    0.95818   1.00
H2       0.55047    0.81540    0.99214   1.00
O_3      0.41795    0.64500    0.98569   1.00
C4       0.41485    0.68600    0.91458   1.00
C3c      0.44971    0.70743    0.91249   1.00
H1       0.47731    0.69225    0.91072   1.00
C3d      0.37917    0.70635    0.91630   1.00
C3       0.44966    0.74854    0.91320   1.00
O2       0.48439    0.76748    0.90626   1.00
C3       0.37906    0.74727    0.91776   1.00
H1       0.35108    0.76157    0.92048   1.00
C2       0.41408    0.76939    0.91611   1.00
C5       0.38153    0.64379    1.00492   1.00
H2       0.37227    0.61338    1.01182   1.00
H2       0.35826    0.65766    0.98685   1.00
C5       0.38567    0.66622    1.04294   1.00
H2       0.39598    0.69629    1.03613   1.00
H2       0.40871    0.65191    1.06090   1.00
C5       0.34684    0.66754    1.06515   1.00
H2       0.33623    0.63760    1.07181   1.00
H2       0.32417    0.68303    1.04780   1.00
H2       0.35064    0.68330    1.09325   1.00
C5       0.32910    0.67605    0.88461   1.00
C5       0.50326    0.77570    0.94202   1.00
H2       0.34915    0.65588    0.86897   1.00
H2       0.32380    0.70212    0.86584   1.00
H2       0.51011    0.74800    0.95770   1.00
H2       0.48491    0.79395    0.96193   1.00
H2       0.53917    0.85555    0.95928   1.00
H2       0.29568    0.60750    0.84870   1.00
H2       0.27576    0.65266    0.82926   1.00
C2       0.41336    0.56105    0.91698   1.00
C3       0.41388    0.58097    0.88092   1.00
O2       0.40421    0.56174    0.84690   1.00
C3       0.41529    0.58326    0.95174   1.00
H1       0.41596    0.56885    0.97977   1.00
C3a      0.41527    0.62213    0.88038   1.00
H1       0.41340    0.63702    0.85262   1.00
C3b      0.41541    0.62422    0.95112   1.00
C4       0.41532    0.64400    0.91528   1.00
O_3      0.34428    0.68667    0.92138   1.00
C5       0.43822    0.55220    0.82576   1.00
H2       0.45521    0.57891    0.81803   1.00
C5       0.42505    0.53166    0.78835   1.00
H2       0.45738    0.53226    0.84290   1.00
H2       0.41539    0.55423    0.76707   1.00
H2       0.39877    0.51399    0.79568   1.00
C5       0.45710    0.50569    0.77037   1.00
H2       0.48412    0.52311    0.76611   1.00
H2       0.44761    0.49391    0.74161   1.00
H2       0.46359    0.47994    0.78933   1.00
C5       0.29050    0.65520    0.89159   1.00
H2       0.26846    0.67718    0.90096   1.00
H2       0.29442    0.63455    0.91640   1.00
C5       0.27649    0.63303    0.85511   1.00
H2       0.24650    0.62166    0.85992   1.00
C5       0.03273    0.43147    0.78906   1.00
H2       0.01745    0.40360    0.79536   1.00
H2       0.05401    0.42479    0.76554   1.00
C5       0.00281    0.46222    0.77496   1.00
H2       -0.00390   0.45818    0.74343   1.00
H2       0.01460    0.49214    0.77953   1.00
O_3      0.18500    0.48569    0.91205   1.00
C4       0.14400    0.41458    0.91515   1.00
C3c      0.12257    0.41249    0.88029   1.00
H1       0.13775    0.41072    0.85269   1.00
C3d      0.12365    0.41630    0.95083   1.00
C3       0.08146    0.41320    0.88034   1.00
O2       0.06252    0.40626    0.84561   1.00
C3       0.08273    0.41776    0.95094   1.00
H1       0.06843    0.42048    0.97892   1.00
C2       0.06061    0.41611    0.91592   1.00
C5       0.18621    0.50492    0.94847   1.00
H2       0.21662    0.51182    0.95773   1.00
H2       0.17234    0.48685    0.97174   1.00
C5       0.16378    0.54294    0.94433   1.00
H2       0.13371    0.53613    0.93402   1.00
H2       0.17809    0.56090    0.92129   1.00
C5       0.16246    0.56515    0.98316   1.00
H2       0.19240    0.57181    0.99377   1.00
H2       0.14697    0.54780    1.00583   1.00
H2       0.14670    0.59325    0.97936   1.00
C5       0.15395    0.38461    1.00090   1.00
C5       0.05430    0.44202    0.82674   1.00
H2       0.17412    0.36897    0.98085   1.00
H2       0.12788    0.36584    1.00620   1.00
H2       0.08200    0.45770    0.81989   1.00
H2       0.03605    0.46193    0.84509   1.00
H2       -0.02555   0.45928    0.79083   1.00
H2       0.22250    0.34870    1.03432   1.00
H2       0.17734    0.32926    1.05424   1.00
C2       0.26895    0.41698    0.91664   1.00
C3       0.24903    0.38092    0.91612   1.00
O2       0.26826    0.34690    0.92579   1.00
C3       0.24674    0.45174    0.91471   1.00
H1       0.26115    0.47977    0.91404   1.00
C3a      0.20787    0.38038    0.91473   1.00
H1       0.19298    0.35262    0.91660   1.00
C3b      0.20578    0.45112    0.91459   1.00
C4       0.18600    0.41528    0.91468   1.00
O_3      0.14333    0.42138    0.98572   1.00
C5       0.27780    0.32576    0.89178   1.00
H2       0.25109    0.31803    0.87479   1.00
C5       0.29834    0.28835    0.90495   1.00
H2       0.29774    0.34290    0.87262   1.00
H2       0.27577    0.26707    0.91461   1.00
H2       0.31601    0.29568    0.93123   1.00
C5       0.32431    0.27037    0.87290   1.00
H2       0.30689    0.26611    0.84588   1.00
H2       0.33609    0.24161    0.88239   1.00
H2       0.35006    0.28933    0.86641   1.00
C5       0.17480    0.39159    1.03950   1.00
H2       0.15282    0.40096    1.06154   1.00
H2       0.19545    0.41640    1.03558   1.00
C5       0.19697    0.35511    1.05351   1.00
H2       0.20834    0.35992    1.08350   1.00
C5       0.79727    0.43147    1.04094   1.00
H2       0.81255    0.40360    1.03464   1.00
H2       0.77599    0.42479    1.06446   1.00
C5       0.82719    0.46222    1.05504   1.00
H2       0.83390    0.45818    1.08657   1.00
H2       0.81540    0.49214    1.05047   1.00
O_3      0.64500    0.48569    0.91795   1.00
C4       0.68600    0.41458    0.91485   1.00
C3c      0.70743    0.41249    0.94971   1.00
H1       0.69225    0.41072    0.97731   1.00
C3d      0.70635    0.41630    0.87917   1.00
C3       0.74854    0.41320    0.94966   1.00
O2       0.76748    0.40626    0.98439   1.00
C3       0.74727    0.41776    0.87906   1.00
H1       0.76157    0.42048    0.85108   1.00
C2       0.76939    0.41611    0.91408   1.00
C5       0.64379    0.50492    0.88153   1.00
H2       0.61338    0.51182    0.87227   1.00
H2       0.65766    0.48685    0.85826   1.00
C5       0.66622    0.54294    0.88567   1.00
H2       0.69629    0.53613    0.89598   1.00
H2       0.65191    0.56090    0.90871   1.00
C5       0.66754    0.56515    0.84684   1.00
H2       0.63760    0.57181    0.83623   1.00
H2       0.68303    0.54780    0.82417   1.00
H2       0.68330    0.59325    0.85064   1.00
C5       0.67605    0.38461    0.82910   1.00
C5       0.77570    0.44202    1.00326   1.00
H2       0.65588    0.36897    0.84915   1.00
H2       0.70212    0.36584    0.82380   1.00
H2       0.74800    0.45770    1.01011   1.00
H2       0.79395    0.46193    0.98491   1.00
H2       0.85555    0.45928    1.03917   1.00
H2       0.60750    0.34870    0.79568   1.00
H2       0.65266    0.32926    0.77576   1.00
C2       0.56105    0.41698    0.91336   1.00
C3       0.58097    0.38092    0.91388   1.00
O2       0.56174    0.34690    0.90421   1.00
C3       0.58326    0.45174    0.91529   1.00
H1       0.56885    0.47977    0.91596   1.00
C3a      0.62213    0.38038    0.91527   1.00
H1       0.63702    0.35262    0.91340   1.00
C3b      0.62422    0.45112    0.91541   1.00
C4       0.64400    0.41528    0.91532   1.00
O_3      0.68667    0.42138    0.84428   1.00
C5       0.55220    0.32576    0.93822   1.00
H2       0.57891    0.31803    0.95521   1.00
C5       0.53166    0.28835    0.92505   1.00
H2       0.53226    0.34290    0.95738   1.00
H2       0.55423    0.26707    0.91539   1.00
H2       0.51399    0.29568    0.89877   1.00
C5       0.50569    0.27037    0.95710   1.00
H2       0.52311    0.26611    0.98412   1.00
H2       0.49391    0.24161    0.94761   1.00
H2       0.47994    0.28933    0.96359   1.00
C5       0.65520    0.39159    0.79050   1.00
H2       0.67718    0.40096    0.76846   1.00
H2       0.63455    0.41640    0.79442   1.00
C5       0.63303    0.35511    0.77649   1.00
H2       0.62166    0.35992    0.74650   1.00
C5       0.28906    0.03273    0.93147   1.00
H2       0.29536    0.01745    0.90360   1.00
H2       0.26554    0.05401    0.92479   1.00
C5       0.27496    0.00281    0.96222   1.00
H2       0.24343    -0.00390   0.95818   1.00
H2       0.27953    0.01460    0.99214   1.00
O_3      0.41205    0.18500    0.98569   1.00
C4       0.41515    0.14400    0.91458   1.00
C3c      0.38029    0.12257    0.91249   1.00
H1       0.35269    0.13775    0.91072   1.00
C3d      0.45083    0.12365    0.91630   1.00
C3       0.38034    0.08146    0.91320   1.00
O2       0.34561    0.06252    0.90626   1.00
C3       0.45094    0.08273    0.91776   1.00
H1       0.47892    0.06843    0.92048   1.00
C2       0.41592    0.06061    0.91611   1.00
C5       0.44847    0.18621    1.00492   1.00
H2       0.45773    0.21662    1.01182   1.00
H2       0.47174    0.17234    0.98685   1.00
C5       0.44433    0.16378    1.04294   1.00
H2       0.43402    0.13371    1.03613   1.00
H2       0.42129    0.17809    1.06090   1.00
C5       0.48316    0.16246    1.06515   1.00
H2       0.49377    0.19240    1.07181   1.00
H2       0.50583    0.14697    1.04780   1.00
H2       0.47936    0.14670    1.09325   1.00
C5       0.50090    0.15395    0.88461   1.00
C5       0.32674    0.05430    0.94202   1.00
H2       0.48085    0.17412    0.86897   1.00
H2       0.50620    0.12788    0.86584   1.00
H2       0.31989    0.08200    0.95770   1.00
H2       0.34509    0.03605    0.96193   1.00
H2       0.29083    -0.02555   0.95928   1.00
H2       0.53432    0.22250    0.84870   1.00
H2       0.55424    0.17734    0.82926   1.00
C2       0.41664    0.26895    0.91698   1.00
C3       0.41612    0.24903    0.88092   1.00
O2       0.42579    0.26826    0.84690   1.00
C3       0.41471    0.24674    0.95174   1.00
H1       0.41404    0.26115    0.97977   1.00
C3a      0.41473    0.20787    0.88038   1.00
H1       0.41660    0.19298    0.85262   1.00
C3b      0.41459    0.20578    0.95112   1.00
C4       0.41468    0.18600    0.91528   1.00
O_3      0.48572    0.14333    0.92138   1.00
C5       0.39178    0.27780    0.82576   1.00
H2       0.37479    0.25109    0.81803   1.00
C5       0.40495    0.29834    0.78835   1.00
H2       0.37262    0.29774    0.84290   1.00
H2       0.41461    0.27577    0.76707   1.00
H2       0.43123    0.31601    0.79568   1.00
C5       0.37290    0.32431    0.77037   1.00
H2       0.34588    0.30689    0.76611   1.00
H2       0.38239    0.33609    0.74161   1.00
H2       0.36641    0.35006    0.78933   1.00
C5       0.53950    0.17480    0.89159   1.00
H2       0.56154    0.15282    0.90096   1.00
H2       0.53558    0.19545    0.91640   1.00
C5       0.55351    0.19697    0.85511   1.00
H2       0.58350    0.20834    0.85992   1.00
C5       0.43147    0.28906    0.53273   1.00
H2       0.40360    0.29536    0.51745   1.00
H2       0.42479    0.26554    0.55401   1.00
C5       0.46222    0.27496    0.50281   1.00
H2       0.45818    0.24343    0.49610   1.00
H2       0.49214    0.27953    0.51460   1.00
O_3      0.48569    0.41205    0.68500   1.00
C4       0.41458    0.41515    0.64400   1.00
C3c      0.41249    0.38029    0.62257   1.00
H1       0.41072    0.35269    0.63775   1.00
C3d      0.41630    0.45083    0.62365   1.00
C3       0.41320    0.38034    0.58146   1.00
O2       0.40626    0.34561    0.56252   1.00
C3       0.41776    0.45094    0.58273   1.00
H1       0.42048    0.47892    0.56843   1.00
C2       0.41611    0.41592    0.56061   1.00
C5       0.50492    0.44847    0.68621   1.00
H2       0.51182    0.45773    0.71662   1.00
H2       0.48685    0.47174    0.67234   1.00
C5       0.54294    0.44433    0.66378   1.00
H2       0.53613    0.43402    0.63371   1.00
H2       0.56090    0.42129    0.67809   1.00
C5       0.56515    0.48316    0.66246   1.00
H2       0.57181    0.49377    0.69240   1.00
H2       0.54780    0.50583    0.64697   1.00
H2       0.59325    0.47936    0.64670   1.00
C5       0.38461    0.50090    0.65395   1.00
C5       0.44202    0.32674    0.55430   1.00
H2       0.36897    0.48085    0.67412   1.00
H2       0.36584    0.50620    0.62788   1.00
H2       0.45770    0.31989    0.58200   1.00
H2       0.46193    0.34509    0.53605   1.00
H2       0.45928    0.29083    0.47445   1.00
H2       0.34870    0.53432    0.72250   1.00
H2       0.32926    0.55424    0.67734   1.00
C2       0.41698    0.41664    0.76895   1.00
C3       0.38092    0.41612    0.74903   1.00
O2       0.34690    0.42579    0.76826   1.00
C3       0.45174    0.41471    0.74674   1.00
H1       0.47977    0.41404    0.76115   1.00
C3a      0.38038    0.41473    0.70787   1.00
H1       0.35262    0.41660    0.69298   1.00
C3b      0.45112    0.41459    0.70578   1.00
C4       0.41528    0.41468    0.68600   1.00
O_3      0.42138    0.48572    0.64333   1.00
C5       0.32576    0.39178    0.77780   1.00
H2       0.31803    0.37479    0.75109   1.00
C5       0.28835    0.40495    0.79834   1.00
H2       0.34290    0.37262    0.79774   1.00
H2       0.26707    0.41461    0.77577   1.00
H2       0.29568    0.43123    0.81601   1.00
C5       0.27037    0.37290    0.82431   1.00
H2       0.26611    0.34588    0.80689   1.00
H2       0.24161    0.38239    0.83609   1.00
H2       0.28933    0.36641    0.85006   1.00
C5       0.39159    0.53950    0.67480   1.00
H2       0.40096    0.56154    0.65282   1.00
H2       0.41640    0.53558    0.69545   1.00
C5       0.35511    0.55351    0.69697   1.00
H2       0.35992    0.58350    0.70834   1.00
C5       0.43147    1.04094    0.79727   1.00
H2       0.40360    1.03464    0.81255   1.00
H2       0.42479    1.06446    0.77599   1.00
C5       0.46222    1.05504    0.82719   1.00
H2       0.45818    1.08657    0.83390   1.00
H2       0.49214    1.05047    0.81540   1.00
O_3      0.48569    0.91795    0.64500   1.00
C4       0.41458    0.91485    0.68600   1.00
C3c      0.41249    0.94971    0.70743   1.00
H1       0.41072    0.97731    0.69225   1.00
C3d      0.41630    0.87917    0.70635   1.00
C3       0.41320    0.94966    0.74854   1.00
O2       0.40626    0.98439    0.76748   1.00
C3       0.41776    0.87906    0.74727   1.00
H1       0.42048    0.85108    0.76157   1.00
C2       0.41611    0.91408    0.76939   1.00
C5       0.50492    0.88153    0.64379   1.00
H2       0.51182    0.87227    0.61338   1.00
H2       0.48685    0.85826    0.65766   1.00
C5       0.54294    0.88567    0.66622   1.00
H2       0.53613    0.89598    0.69629   1.00
H2       0.56090    0.90871    0.65191   1.00
C5       0.56515    0.84684    0.66754   1.00
H2       0.57181    0.83623    0.63760   1.00
H2       0.54780    0.82417    0.68303   1.00
H2       0.59325    0.85064    0.68330   1.00
C5       0.38461    0.82910    0.67605   1.00
C5       0.44202    1.00326    0.77570   1.00
H2       0.36897    0.84915    0.65588   1.00
H2       0.36584    0.82380    0.70212   1.00
H2       0.45770    1.01011    0.74800   1.00
H2       0.46193    0.98491    0.79395   1.00
H2       0.45928    1.03917    0.85555   1.00
H2       0.34870    0.79568    0.60750   1.00
H2       0.32926    0.77576    0.65266   1.00
C2       0.41698    0.91336    0.56105   1.00
C3       0.38092    0.91388    0.58097   1.00
O2       0.34690    0.90421    0.56174   1.00
C3       0.45174    0.91529    0.58326   1.00
H1       0.47977    0.91596    0.56885   1.00
C3a      0.38038    0.91527    0.62213   1.00
H1       0.35262    0.91340    0.63702   1.00
C3b      0.45112    0.91541    0.62422   1.00
C4       0.41528    0.91532    0.64400   1.00
O_3      0.42138    0.84428    0.68667   1.00
C5       0.32576    0.93822    0.55220   1.00
H2       0.31803    0.95521    0.57891   1.00
C5       0.28835    0.92505    0.53166   1.00
H2       0.34290    0.95738    0.53226   1.00
H2       0.26707    0.91539    0.55423   1.00
H2       0.29568    0.89877    0.51399   1.00
C5       0.27037    0.95710    0.50569   1.00
H2       0.26611    0.98412    0.52311   1.00
H2       0.24161    0.94761    0.49391   1.00
H2       0.28933    0.96359    0.47994   1.00
C5       0.39159    0.79050    0.65520   1.00
H2       0.40096    0.76846    0.67718   1.00
H2       0.41640    0.79442    0.63455   1.00
C5       0.35511    0.77649    0.63303   1.00
H2       0.35992    0.74650    0.62166   1.00
C5       0.54094    1.29727    0.43147   1.00
H2       0.53464    1.31255    0.40360   1.00
H2       0.56446    1.27599    0.42479   1.00
C5       0.55504    1.32719    0.46222   1.00
H2       0.58657    1.33390    0.45818   1.00
H2       0.55047    1.31540    0.49214   1.00
O_3      0.41795    1.14500    0.48569   1.00
C4       0.41485    1.18600    0.41458   1.00
C3c      0.44971    1.20743    0.41249   1.00
H1       0.47731    1.19225    0.41072   1.00
C3d      0.37917    1.20635    0.41630   1.00
C3       0.44966    1.24854    0.41320   1.00
O2       0.48439    1.26748    0.40626   1.00
C3       0.37906    1.24727    0.41776   1.00
H1       0.35108    1.26157    0.42048   1.00
C2       0.41408    1.26939    0.41611   1.00
C5       0.38153    1.14379    0.50492   1.00
H2       0.37227    1.11338    0.51182   1.00
H2       0.35826    1.15766    0.48685   1.00
C5       0.38567    1.16622    0.54294   1.00
H2       0.39598    1.19629    0.53613   1.00
H2       0.40871    1.15191    0.56090   1.00
C5       0.34684    1.16754    0.56515   1.00
H2       0.33623    1.13760    0.57181   1.00
H2       0.32417    1.18303    0.54780   1.00
H2       0.35064    1.18330    0.59325   1.00
C5       0.32910    1.17605    0.38461   1.00
C5       0.50326    1.27570    0.44202   1.00
H2       0.34915    1.15588    0.36897   1.00
H2       0.32380    1.20212    0.36584   1.00
H2       0.51011    1.24800    0.45770   1.00
H2       0.48491    1.29395    0.46193   1.00
H2       0.53917    1.35555    0.45928   1.00
H2       0.29568    1.10750    0.34870   1.00
H2       0.27576    1.15266    0.32926   1.00
C2       0.41336    1.06105    0.41698   1.00
C3       0.41388    1.08097    0.38092   1.00
O2       0.40421    1.06174    0.34690   1.00
C3       0.41529    1.08326    0.45174   1.00
H1       0.41596    1.06885    0.47977   1.00
C3a      0.41527    1.12213    0.38038   1.00
H1       0.41340    1.13702    0.35262   1.00
C3b      0.41541    1.12422    0.45112   1.00
C4       0.41532    1.14400    0.41528   1.00
O_3      0.34428    1.18667    0.42138   1.00
C5       0.43822    1.05220    0.32576   1.00
H2       0.45521    1.07891    0.31803   1.00
C5       0.42505    1.03166    0.28835   1.00
H2       0.45738    1.03226    0.34290   1.00
H2       0.41539    1.05423    0.26707   1.00
H2       0.39877    1.01399    0.29568   1.00
C5       0.45710    1.00569    0.27037   1.00
H2       0.48412    1.02311    0.26611   1.00
H2       0.44761    0.99391    0.24161   1.00
H2       0.46359    0.97994    0.28933   1.00
C5       0.29050    1.15520    0.39159   1.00
H2       0.26846    1.17718    0.40096   1.00
H2       0.29442    1.13455    0.41640   1.00
C5       0.27649    1.13303    0.35511   1.00
H2       0.24650    1.12166    0.35992   1.00
C5       0.03273    0.93147    0.28906   1.00
H2       0.01745    0.90360    0.29536   1.00
H2       0.05401    0.92479    0.26554   1.00
C5       0.00281    0.96222    0.27496   1.00
H2       -0.00390   0.95818    0.24343   1.00
H2       0.01460    0.99214    0.27953   1.00
O_3      0.18500    0.98569    0.41205   1.00
C4       0.14400    0.91458    0.41515   1.00
C3c      0.12257    0.91249    0.38029   1.00
H1       0.13775    0.91072    0.35269   1.00
C3d      0.12365    0.91630    0.45083   1.00
C3       0.08146    0.91320    0.38034   1.00
O2       0.06252    0.90626    0.34561   1.00
C3       0.08273    0.91776    0.45094   1.00
H1       0.06843    0.92048    0.47892   1.00
C2       0.06061    0.91611    0.41592   1.00
C5       0.18621    1.00492    0.44847   1.00
H2       0.21662    1.01182    0.45773   1.00
H2       0.17234    0.98685    0.47174   1.00
C5       0.16378    1.04294    0.44433   1.00
H2       0.13371    1.03613    0.43402   1.00
H2       0.17809    1.06090    0.42129   1.00
C5       0.16246    1.06515    0.48316   1.00
H2       0.19240    1.07181    0.49377   1.00
H2       0.14697    1.04780    0.50583   1.00
H2       0.14670    1.09325    0.47936   1.00
C5       0.15395    0.88461    0.50090   1.00
C5       0.05430    0.94202    0.32674   1.00
H2       0.17412    0.86897    0.48085   1.00
H2       0.12788    0.86584    0.50620   1.00
H2       0.08200    0.95770    0.31989   1.00
H2       0.03605    0.96193    0.34509   1.00
H2       -0.02555   0.95928    0.29083   1.00
H2       0.22250    0.84870    0.53432   1.00
H2       0.17734    0.82926    0.55424   1.00
C2       0.26895    0.91698    0.41664   1.00
C3       0.24903    0.88092    0.41612   1.00
O2       0.26826    0.84690    0.42579   1.00
C3       0.24674    0.95174    0.41471   1.00
H1       0.26115    0.97977    0.41404   1.00
C3a      0.20787    0.88038    0.41473   1.00
H1       0.19298    0.85262    0.41660   1.00
C3b      0.20578    0.95112    0.41459   1.00
C4       0.18600    0.91528    0.41468   1.00
O_3      0.14333    0.92138    0.48572   1.00
C5       0.27780    0.82576    0.39178   1.00
H2       0.25109    0.81803    0.37479   1.00
C5       0.29834    0.78835    0.40495   1.00
H2       0.29774    0.84290    0.37262   1.00
H2       0.27577    0.76707    0.41461   1.00
H2       0.31601    0.79568    0.43123   1.00
C5       0.32431    0.77037    0.37290   1.00
H2       0.30689    0.76611    0.34588   1.00
H2       0.33609    0.74161    0.38239   1.00
H2       0.35006    0.78933    0.36641   1.00
C5       0.17480    0.89159    0.53950   1.00
H2       0.15282    0.90096    0.56154   1.00
H2       0.19545    0.91640    0.53558   1.00
C5       0.19697    0.85511    0.55351   1.00
H2       0.20834    0.85992    0.58350   1.00
C5       0.79727    0.93147    0.54094   1.00
H2       0.81255    0.90360    0.53464   1.00
H2       0.77599    0.92479    0.56446   1.00
C5       0.82719    0.96222    0.55504   1.00
H2       0.83390    0.95818    0.58657   1.00
H2       0.81540    0.99214    0.55047   1.00
O_3      0.64500    0.98569    0.41795   1.00
C4       0.68600    0.91458    0.41485   1.00
C3c      0.70743    0.91249    0.44971   1.00
H1       0.69225    0.91072    0.47731   1.00
C3d      0.70635    0.91630    0.37917   1.00
C3       0.74854    0.91320    0.44966   1.00
O2       0.76748    0.90626    0.48439   1.00
C3       0.74727    0.91776    0.37906   1.00
H1       0.76157    0.92048    0.35108   1.00
C2       0.76939    0.91611    0.41408   1.00
C5       0.64379    1.00492    0.38153   1.00
H2       0.61338    1.01182    0.37227   1.00
H2       0.65766    0.98685    0.35826   1.00
C5       0.66622    1.04294    0.38567   1.00
H2       0.69629    1.03613    0.39598   1.00
H2       0.65191    1.06090    0.40871   1.00
C5       0.66754    1.06515    0.34684   1.00
H2       0.63760    1.07181    0.33623   1.00
H2       0.68303    1.04780    0.32417   1.00
H2       0.68330    1.09325    0.35064   1.00
C5       0.67605    0.88461    0.32910   1.00
C5       0.77570    0.94202    0.50326   1.00
H2       0.65588    0.86897    0.34915   1.00
H2       0.70212    0.86584    0.32380   1.00
H2       0.74800    0.95770    0.51011   1.00
H2       0.79395    0.96193    0.48491   1.00
H2       0.85555    0.95928    0.53917   1.00
H2       0.60750    0.84870    0.29568   1.00
H2       0.65266    0.82926    0.27576   1.00
C2       0.56105    0.91698    0.41336   1.00
C3       0.58097    0.88092    0.41388   1.00
O2       0.56174    0.84690    0.40421   1.00
C3       0.58326    0.95174    0.41529   1.00
H1       0.56885    0.97977    0.41596   1.00
C3a      0.62213    0.88038    0.41527   1.00
H1       0.63702    0.85262    0.41340   1.00
C3b      0.62422    0.95112    0.41541   1.00
C4       0.64400    0.91528    0.41532   1.00
O_3      0.68667    0.92138    0.34428   1.00
C5       0.55220    0.82576    0.43822   1.00
H2       0.57891    0.81803    0.45521   1.00
C5       0.53166    0.78835    0.42505   1.00
H2       0.53226    0.84290    0.45738   1.00
H2       0.55423    0.76707    0.41539   1.00
H2       0.51399    0.79568    0.39877   1.00
C5       0.50569    0.77037    0.45710   1.00
H2       0.52311    0.76611    0.48412   1.00
H2       0.49391    0.74161    0.44761   1.00
H2       0.47994    0.78933    0.46359   1.00
C5       0.65520    0.89159    0.29050   1.00
H2       0.67718    0.90096    0.26846   1.00
H2       0.63455    0.91640    0.29442   1.00
C5       0.63303    0.85511    0.27649   1.00
H2       0.62166    0.85992    0.24650   1.00
C5       0.28906    0.53273    0.43147   1.00
H2       0.29536    0.51745    0.40360   1.00
H2       0.26554    0.55401    0.42479   1.00
C5       0.27496    0.50281    0.46222   1.00
H2       0.24343    0.49610    0.45818   1.00
H2       0.27953    0.51460    0.49214   1.00
O_3      0.41205    0.68500    0.48569   1.00
C4       0.41515    0.64400    0.41458   1.00
C3c      0.38029    0.62257    0.41249   1.00
H1       0.35269    0.63775    0.41072   1.00
C3d      0.45083    0.62365    0.41630   1.00
C3       0.38034    0.58146    0.41320   1.00
O2       0.34561    0.56252    0.40626   1.00
C3       0.45094    0.58273    0.41776   1.00
H1       0.47892    0.56843    0.42048   1.00
C2       0.41592    0.56061    0.41611   1.00
C5       0.44847    0.68621    0.50492   1.00
H2       0.45773    0.71662    0.51182   1.00
H2       0.47174    0.67234    0.48685   1.00
C5       0.44433    0.66378    0.54294   1.00
H2       0.43402    0.63371    0.53613   1.00
H2       0.42129    0.67809    0.56090   1.00
C5       0.48316    0.66246    0.56515   1.00
H2       0.49377    0.69240    0.57181   1.00
H2       0.50583    0.64697    0.54780   1.00
H2       0.47936    0.64670    0.59325   1.00
C5       0.50090    0.65395    0.38461   1.00
C5       0.32674    0.55430    0.44202   1.00
H2       0.48085    0.67412    0.36897   1.00
H2       0.50620    0.62788    0.36584   1.00
H2       0.31989    0.58200    0.45770   1.00
H2       0.34509    0.53605    0.46193   1.00
H2       0.29083    0.47445    0.45928   1.00
H2       0.53432    0.72250    0.34870   1.00
H2       0.55424    0.67734    0.32926   1.00
C2       0.41664    0.76895    0.41698   1.00
C3       0.41612    0.74903    0.38092   1.00
O2       0.42579    0.76826    0.34690   1.00
C3       0.41471    0.74674    0.45174   1.00
H1       0.41404    0.76115    0.47977   1.00
C3a      0.41473    0.70787    0.38038   1.00
H1       0.41660    0.69298    0.35262   1.00
C3b      0.41459    0.70578    0.45112   1.00
C4       0.41468    0.68600    0.41528   1.00
O_3      0.48572    0.64333    0.42138   1.00
C5       0.39178    0.77780    0.32576   1.00
H2       0.37479    0.75109    0.31803   1.00
C5       0.40495    0.79834    0.28835   1.00
H2       0.37262    0.79774    0.34290   1.00
H2       0.41461    0.77577    0.26707   1.00
H2       0.43123    0.81601    0.29568   1.00
C5       0.37290    0.82431    0.27037   1.00
H2       0.34588    0.80689    0.26611   1.00
H2       0.38239    0.83609    0.24161   1.00
H2       0.36641    0.85006    0.28933   1.00
C5       0.53950    0.67480    0.39159   1.00
H2       0.56154    0.65282    0.40096   1.00
H2       0.53558    0.69545    0.41640   1.00
C5       0.55351    0.69697    0.35511   1.00
H2       0.58350    0.70834    0.35992   1.00
C5       0.43147    0.78906    0.03273   1.00
H2       0.40360    0.79536    0.01745   1.00
H2       0.42479    0.76554    0.05401   1.00
C5       0.46222    0.77496    0.00281   1.00
H2       0.45818    0.74343    -0.00390   1.00
H2       0.49214    0.77953    0.01460   1.00
O_3      0.48569    0.91205    0.18500   1.00
C4       0.41458    0.91515    0.14400   1.00
C3c      0.41249    0.88029    0.12257   1.00
H1       0.41072    0.85269    0.13775   1.00
C3d      0.41630    0.95083    0.12365   1.00
C3       0.41320    0.88034    0.08146   1.00
O2       0.40626    0.84561    0.06252   1.00
C3       0.41776    0.95094    0.08273   1.00
H1       0.42048    0.97892    0.06843   1.00
C2       0.41611    0.91592    0.06061   1.00
C5       0.50492    0.94847    0.18621   1.00
H2       0.51182    0.95773    0.21662   1.00
H2       0.48685    0.97174    0.17234   1.00
C5       0.54294    0.94433    0.16378   1.00
H2       0.53613    0.93402    0.13371   1.00
H2       0.56090    0.92129    0.17809   1.00
C5       0.56515    0.98316    0.16246   1.00
H2       0.57181    0.99377    0.19240   1.00
H2       0.54780    1.00583    0.14697   1.00
H2       0.59325    0.97936    0.14670   1.00
C5       0.38461    1.00090    0.15395   1.00
C5       0.44202    0.82674    0.05430   1.00
H2       0.36897    0.98085    0.17412   1.00
H2       0.36584    1.00620    0.12788   1.00
H2       0.45770    0.81989    0.08200   1.00
H2       0.46193    0.84509    0.03605   1.00
H2       0.45928    0.79083    -0.02555   1.00
H2       0.34870    1.03432    0.22250   1.00
H2       0.32926    1.05424    0.17734   1.00
C2       0.41698    0.91664    0.26895   1.00
C3       0.38092    0.91612    0.24903   1.00
O2       0.34690    0.92579    0.26826   1.00
C3       0.45174    0.91471    0.24674   1.00
H1       0.47977    0.91404    0.26115   1.00
C3a      0.38038    0.91473    0.20787   1.00
H1       0.35262    0.91660    0.19298   1.00
C3b      0.45112    0.91459    0.20578   1.00
C4       0.41528    0.91468    0.18600   1.00
O_3      0.42138    0.98572    0.14333   1.00
C5       0.32576    0.89178    0.27780   1.00
H2       0.31803    0.87479    0.25109   1.00
C5       0.28835    0.90495    0.29834   1.00
H2       0.34290    0.87262    0.29774   1.00
H2       0.26707    0.91461    0.27577   1.00
H2       0.29568    0.93123    0.31601   1.00
C5       0.27037    0.87290    0.32431   1.00
H2       0.26611    0.84588    0.30689   1.00
H2       0.24161    0.88239    0.33609   1.00
H2       0.28933    0.86641    0.35006   1.00
C5       0.39159    1.03950    0.17480   1.00
H2       0.40096    1.06154    0.15282   1.00
H2       0.41640    1.03558    0.19545   1.00
C5       0.35511    1.05351    0.19697   1.00
H2       0.35992    1.08350    0.20834   1.00
C5       0.93147    0.54094    0.79727   1.00
H2       0.90360    0.53464    0.81255   1.00
H2       0.92479    0.56446    0.77599   1.00
C5       0.96222    0.55504    0.82719   1.00
H2       0.95818    0.58657    0.83390   1.00
H2       0.99214    0.55047    0.81540   1.00
O_3      0.98569    0.41795    0.64500   1.00
C4       0.91458    0.41485    0.68600   1.00
C3c      0.91249    0.44971    0.70743   1.00
H1       0.91072    0.47731    0.69225   1.00
C3d      0.91630    0.37917    0.70635   1.00
C3       0.91320    0.44966    0.74854   1.00
O2       0.90626    0.48439    0.76748   1.00
C3       0.91776    0.37906    0.74727   1.00
H1       0.92048    0.35108    0.76157   1.00
C2       0.91611    0.41408    0.76939   1.00
C5       1.00492    0.38153    0.64379   1.00
H2       1.01182    0.37227    0.61338   1.00
H2       0.98685    0.35826    0.65766   1.00
C5       1.04294    0.38567    0.66622   1.00
H2       1.03613    0.39598    0.69629   1.00
H2       1.06090    0.40871    0.65191   1.00
C5       1.06515    0.34684    0.66754   1.00
H2       1.07181    0.33623    0.63760   1.00
H2       1.04780    0.32417    0.68303   1.00
H2       1.09325    0.35064    0.68330   1.00
C5       0.88461    0.32910    0.67605   1.00
C5       0.94202    0.50326    0.77570   1.00
H2       0.86897    0.34915    0.65588   1.00
H2       0.86584    0.32380    0.70212   1.00
H2       0.95770    0.51011    0.74800   1.00
H2       0.96193    0.48491    0.79395   1.00
H2       0.95928    0.53917    0.85555   1.00
H2       0.84870    0.29568    0.60750   1.00
H2       0.82926    0.27576    0.65266   1.00
C2       0.91698    0.41336    0.56105   1.00
C3       0.88092    0.41388    0.58097   1.00
O2       0.84690    0.40421    0.56174   1.00
C3       0.95174    0.41529    0.58326   1.00
H1       0.97977    0.41596    0.56885   1.00
C3a      0.88038    0.41527    0.62213   1.00
H1       0.85262    0.41340    0.63702   1.00
C3b      0.95112    0.41541    0.62422   1.00
C4       0.91528    0.41532    0.64400   1.00
O_3      0.92138    0.34428    0.68667   1.00
C5       0.82576    0.43822    0.55220   1.00
H2       0.81803    0.45521    0.57891   1.00
C5       0.78835    0.42505    0.53166   1.00
H2       0.84290    0.45738    0.53226   1.00
H2       0.76707    0.41539    0.55423   1.00
H2       0.79568    0.39877    0.51399   1.00
C5       0.77037    0.45710    0.50569   1.00
H2       0.76611    0.48412    0.52311   1.00
H2       0.74161    0.44761    0.49391   1.00
H2       0.78933    0.46359    0.47994   1.00
C5       0.89159    0.29050    0.65520   1.00
H2       0.90096    0.26846    0.67718   1.00
H2       0.91640    0.29442    0.63455   1.00
C5       0.85511    0.27649    0.63303   1.00
H2       0.85992    0.24650    0.62166   1.00
C5       1.04094    0.79727    0.43147   1.00
H2       1.03464    0.81255    0.40360   1.00
H2       1.06446    0.77599    0.42479   1.00
C5       1.05504    0.82719    0.46222   1.00
H2       1.08657    0.83390    0.45818   1.00
H2       1.05047    0.81540    0.49214   1.00
O_3      0.91795    0.64500    0.48569   1.00
C4       0.91485    0.68600    0.41458   1.00
C3c      0.94971    0.70743    0.41249   1.00
H1       0.97731    0.69225    0.41072   1.00
C3d      0.87917    0.70635    0.41630   1.00
C3       0.94966    0.74854    0.41320   1.00
O2       0.98439    0.76748    0.40626   1.00
C3       0.87906    0.74727    0.41776   1.00
H1       0.85108    0.76157    0.42048   1.00
C2       0.91408    0.76939    0.41611   1.00
C5       0.88153    0.64379    0.50492   1.00
H2       0.87227    0.61338    0.51182   1.00
H2       0.85826    0.65766    0.48685   1.00
C5       0.88567    0.66622    0.54294   1.00
H2       0.89598    0.69629    0.53613   1.00
H2       0.90871    0.65191    0.56090   1.00
C5       0.84684    0.66754    0.56515   1.00
H2       0.83623    0.63760    0.57181   1.00
H2       0.82417    0.68303    0.54780   1.00
H2       0.85064    0.68330    0.59325   1.00
C5       0.82910    0.67605    0.38461   1.00
C5       1.00326    0.77570    0.44202   1.00
H2       0.84915    0.65588    0.36897   1.00
H2       0.82380    0.70212    0.36584   1.00
H2       1.01011    0.74800    0.45770   1.00
H2       0.98491    0.79395    0.46193   1.00
H2       1.03917    0.85555    0.45928   1.00
H2       0.79568    0.60750    0.34870   1.00
H2       0.77576    0.65266    0.32926   1.00
C2       0.91336    0.56105    0.41698   1.00
C3       0.91388    0.58097    0.38092   1.00
O2       0.90421    0.56174    0.34690   1.00
C3       0.91529    0.58326    0.45174   1.00
H1       0.91596    0.56885    0.47977   1.00
C3a      0.91527    0.62213    0.38038   1.00
H1       0.91340    0.63702    0.35262   1.00
C3b      0.91541    0.62422    0.45112   1.00
C4       0.91532    0.64400    0.41528   1.00
O_3      0.84428    0.68667    0.42138   1.00
C5       0.93822    0.55220    0.32576   1.00
H2       0.95521    0.57891    0.31803   1.00
C5       0.92505    0.53166    0.28835   1.00
H2       0.95738    0.53226    0.34290   1.00
H2       0.91539    0.55423    0.26707   1.00
H2       0.89877    0.51399    0.29568   1.00
C5       0.95710    0.50569    0.27037   1.00
H2       0.98412    0.52311    0.26611   1.00
H2       0.94761    0.49391    0.24161   1.00
H2       0.96359    0.47994    0.28933   1.00
C5       0.79050    0.65520    0.39159   1.00
H2       0.76846    0.67718    0.40096   1.00
H2       0.79442    0.63455    0.41640   1.00
C5       0.77649    0.63303    0.35511   1.00
H2       0.74650    0.62166    0.35992   1.00
C5       0.53273    0.43147    0.28906   1.00
H2       0.51745    0.40360    0.29536   1.00
H2       0.55401    0.42479    0.26554   1.00
C5       0.50281    0.46222    0.27496   1.00
H2       0.49610    0.45818    0.24343   1.00
H2       0.51460    0.49214    0.27953   1.00
O_3      0.68500    0.48569    0.41205   1.00
C4       0.64400    0.41458    0.41515   1.00
C3c      0.62257    0.41249    0.38029   1.00
H1       0.63775    0.41072    0.35269   1.00
C3d      0.62365    0.41630    0.45083   1.00
C3       0.58146    0.41320    0.38034   1.00
O2       0.56252    0.40626    0.34561   1.00
C3       0.58273    0.41776    0.45094   1.00
H1       0.56843    0.42048    0.47892   1.00
C2       0.56061    0.41611    0.41592   1.00
C5       0.68621    0.50492    0.44847   1.00
H2       0.71662    0.51182    0.45773   1.00
H2       0.67234    0.48685    0.47174   1.00
C5       0.66378    0.54294    0.44433   1.00
H2       0.63371    0.53613    0.43402   1.00
H2       0.67809    0.56090    0.42129   1.00
C5       0.66246    0.56515    0.48316   1.00
H2       0.69240    0.57181    0.49377   1.00
H2       0.64697    0.54780    0.50583   1.00
H2       0.64670    0.59325    0.47936   1.00
C5       0.65395    0.38461    0.50090   1.00
C5       0.55430    0.44202    0.32674   1.00
H2       0.67412    0.36897    0.48085   1.00
H2       0.62788    0.36584    0.50620   1.00
H2       0.58200    0.45770    0.31989   1.00
H2       0.53605    0.46193    0.34509   1.00
H2       0.47445    0.45928    0.29083   1.00
H2       0.72250    0.34870    0.53432   1.00
H2       0.67734    0.32926    0.55424   1.00
C2       0.76895    0.41698    0.41664   1.00
C3       0.74903    0.38092    0.41612   1.00
O2       0.76826    0.34690    0.42579   1.00
C3       0.74674    0.45174    0.41471   1.00
H1       0.76115    0.47977    0.41404   1.00
C3a      0.70787    0.38038    0.41473   1.00
H1       0.69298    0.35262    0.41660   1.00
C3b      0.70578    0.45112    0.41459   1.00
C4       0.68600    0.41528    0.41468   1.00
O_3      0.64333    0.42138    0.48572   1.00
C5       0.77780    0.32576    0.39178   1.00
H2       0.75109    0.31803    0.37479   1.00
C5       0.79834    0.28835    0.40495   1.00
H2       0.79774    0.34290    0.37262   1.00
H2       0.77577    0.26707    0.41461   1.00
H2       0.81601    0.29568    0.43123   1.00
C5       0.82431    0.27037    0.37290   1.00
H2       0.80689    0.26611    0.34588   1.00
H2       0.83609    0.24161    0.38239   1.00
H2       0.85006    0.28933    0.36641   1.00
C5       0.67480    0.39159    0.53950   1.00
H2       0.65282    0.40096    0.56154   1.00
H2       0.69545    0.41640    0.53558   1.00
C5       0.69697    0.35511    0.55351   1.00
H2       0.70834    0.35992    0.58350   1.00
C5       1.29727    0.43147    0.54094   1.00
H2       1.31255    0.40360    0.53464   1.00
H2       1.27599    0.42479    0.56446   1.00
C5       1.32719    0.46222    0.55504   1.00
H2       1.33390    0.45818    0.58657   1.00
H2       1.31540    0.49214    0.55047   1.00
O_3      1.14500    0.48569    0.41795   1.00
C4       1.18600    0.41458    0.41485   1.00
C3c      1.20743    0.41249    0.44971   1.00
H1       1.19225    0.41072    0.47731   1.00
C3d      1.20635    0.41630    0.37917   1.00
C3       1.24854    0.41320    0.44966   1.00
O2       1.26748    0.40626    0.48439   1.00
C3       1.24727    0.41776    0.37906   1.00
H1       1.26157    0.42048    0.35108   1.00
C2       1.26939    0.41611    0.41408   1.00
C5       1.14379    0.50492    0.38153   1.00
H2       1.11338    0.51182    0.37227   1.00
H2       1.15766    0.48685    0.35826   1.00
C5       1.16622    0.54294    0.38567   1.00
H2       1.19629    0.53613    0.39598   1.00
H2       1.15191    0.56090    0.40871   1.00
C5       1.16754    0.56515    0.34684   1.00
H2       1.13760    0.57181    0.33623   1.00
H2       1.18303    0.54780    0.32417   1.00
H2       1.18330    0.59325    0.35064   1.00
C5       1.17605    0.38461    0.32910   1.00
C5       1.27570    0.44202    0.50326   1.00
H2       1.15588    0.36897    0.34915   1.00
H2       1.20212    0.36584    0.32380   1.00
H2       1.24800    0.45770    0.51011   1.00
H2       1.29395    0.46193    0.48491   1.00
H2       1.35555    0.45928    0.53917   1.00
H2       1.10750    0.34870    0.29568   1.00
H2       1.15266    0.32926    0.27576   1.00
C2       1.06105    0.41698    0.41336   1.00
C3       1.08097    0.38092    0.41388   1.00
O2       1.06174    0.34690    0.40421   1.00
C3       1.08326    0.45174    0.41529   1.00
H1       1.06885    0.47977    0.41596   1.00
C3a      1.12213    0.38038    0.41527   1.00
H1       1.13702    0.35262    0.41340   1.00
C3b      1.12422    0.45112    0.41541   1.00
C4       1.14400    0.41528    0.41532   1.00
O_3      1.18667    0.42138    0.34428   1.00
C5       1.05220    0.32576    0.43822   1.00
H2       1.07891    0.31803    0.45521   1.00
C5       1.03166    0.28835    0.42505   1.00
H2       1.03226    0.34290    0.45738   1.00
H2       1.05423    0.26707    0.41539   1.00
H2       1.01399    0.29568    0.39877   1.00
C5       1.00569    0.27037    0.45710   1.00
H2       1.02311    0.26611    0.48412   1.00
H2       0.99391    0.24161    0.44761   1.00
H2       0.97994    0.28933    0.46359   1.00
C5       1.15520    0.39159    0.29050   1.00
H2       1.17718    0.40096    0.26846   1.00
H2       1.13455    0.41640    0.29442   1.00
C5       1.13303    0.35511    0.27649   1.00
H2       1.12166    0.35992    0.24650   1.00
C5       0.78906    0.03273    0.43147   1.00
H2       0.79536    0.01745    0.40360   1.00
H2       0.76554    0.05401    0.42479   1.00
C5       0.77496    0.00281    0.46222   1.00
H2       0.74343    -0.00390   0.45818   1.00
H2       0.77953    0.01460    0.49214   1.00
O_3      0.91205    0.18500    0.48569   1.00
C4       0.91515    0.14400    0.41458   1.00
C3c      0.88029    0.12257    0.41249   1.00
H1       0.85269    0.13775    0.41072   1.00
C3d      0.95083    0.12365    0.41630   1.00
C3       0.88034    0.08146    0.41320   1.00
O2       0.84561    0.06252    0.40626   1.00
C3       0.95094    0.08273    0.41776   1.00
H1       0.97892    0.06843    0.42048   1.00
C2       0.91592    0.06061    0.41611   1.00
C5       0.94847    0.18621    0.50492   1.00
H2       0.95773    0.21662    0.51182   1.00
H2       0.97174    0.17234    0.48685   1.00
C5       0.94433    0.16378    0.54294   1.00
H2       0.93402    0.13371    0.53613   1.00
H2       0.92129    0.17809    0.56090   1.00
C5       0.98316    0.16246    0.56515   1.00
H2       0.99377    0.19240    0.57181   1.00
H2       1.00583    0.14697    0.54780   1.00
H2       0.97936    0.14670    0.59325   1.00
C5       1.00090    0.15395    0.38461   1.00
C5       0.82674    0.05430    0.44202   1.00
H2       0.98085    0.17412    0.36897   1.00
H2       1.00620    0.12788    0.36584   1.00
H2       0.81989    0.08200    0.45770   1.00
H2       0.84509    0.03605    0.46193   1.00
H2       0.79083    -0.02555   0.45928   1.00
H2       1.03432    0.22250    0.34870   1.00
H2       1.05424    0.17734    0.32926   1.00
C2       0.91664    0.26895    0.41698   1.00
C3       0.91612    0.24903    0.38092   1.00
O2       0.92579    0.26826    0.34690   1.00
C3       0.91471    0.24674    0.45174   1.00
H1       0.91404    0.26115    0.47977   1.00
C3a      0.91473    0.20787    0.38038   1.00
H1       0.91660    0.19298    0.35262   1.00
C3b      0.91459    0.20578    0.45112   1.00
C4       0.91468    0.18600    0.41528   1.00
O_3      0.98572    0.14333    0.42138   1.00
C5       0.89178    0.27780    0.32576   1.00
H2       0.87479    0.25109    0.31803   1.00
C5       0.90495    0.29834    0.28835   1.00
H2       0.87262    0.29774    0.34290   1.00
H2       0.91461    0.27577    0.26707   1.00
H2       0.93123    0.31601    0.29568   1.00
C5       0.87290    0.32431    0.27037   1.00
H2       0.84588    0.30689    0.26611   1.00
H2       0.88239    0.33609    0.24161   1.00
H2       0.86641    0.35006    0.28933   1.00
C5       1.03950    0.17480    0.39159   1.00
H2       1.06154    0.15282    0.40096   1.00
H2       1.03558    0.19545    0.41640   1.00
C5       1.05351    0.19697    0.35511   1.00
H2       1.08350    0.20834    0.35992   1.00
C5       0.93147    0.28906    0.03273   1.00
H2       0.90360    0.29536    0.01745   1.00
H2       0.92479    0.26554    0.05401   1.00
C5       0.96222    0.27496    0.00281   1.00
H2       0.95818    0.24343    -0.00390   1.00
H2       0.99214    0.27953    0.01460   1.00
O_3      0.98569    0.41205    0.18500   1.00
C4       0.91458    0.41515    0.14400   1.00
C3c      0.91249    0.38029    0.12257   1.00
H1       0.91072    0.35269    0.13775   1.00
C3d      0.91630    0.45083    0.12365   1.00
C3       0.91320    0.38034    0.08146   1.00
O2       0.90626    0.34561    0.06252   1.00
C3       0.91776    0.45094    0.08273   1.00
H1       0.92048    0.47892    0.06843   1.00
C2       0.91611    0.41592    0.06061   1.00
C5       1.00492    0.44847    0.18621   1.00
H2       1.01182    0.45773    0.21662   1.00
H2       0.98685    0.47174    0.17234   1.00
C5       1.04294    0.44433    0.16378   1.00
H2       1.03613    0.43402    0.13371   1.00
H2       1.06090    0.42129    0.17809   1.00
C5       1.06515    0.48316    0.16246   1.00
H2       1.07181    0.49377    0.19240   1.00
H2       1.04780    0.50583    0.14697   1.00
H2       1.09325    0.47936    0.14670   1.00
C5       0.88461    0.50090    0.15395   1.00
C5       0.94202    0.32674    0.05430   1.00
H2       0.86897    0.48085    0.17412   1.00
H2       0.86584    0.50620    0.12788   1.00
H2       0.95770    0.31989    0.08200   1.00
H2       0.96193    0.34509    0.03605   1.00
H2       0.95928    0.29083    -0.02555   1.00
H2       0.84870    0.53432    0.22250   1.00
H2       0.82926    0.55424    0.17734   1.00
C2       0.91698    0.41664    0.26895   1.00
C3       0.88092    0.41612    0.24903   1.00
O2       0.84690    0.42579    0.26826   1.00
C3       0.95174    0.41471    0.24674   1.00
H1       0.97977    0.41404    0.26115   1.00
C3a      0.88038    0.41473    0.20787   1.00
H1       0.85262    0.41660    0.19298   1.00
C3b      0.95112    0.41459    0.20578   1.00
C4       0.91528    0.41468    0.18600   1.00
O_3      0.92138    0.48572    0.14333   1.00
C5       0.82576    0.39178    0.27780   1.00
H2       0.81803    0.37479    0.25109   1.00
C5       0.78835    0.40495    0.29834   1.00
H2       0.84290    0.37262    0.29774   1.00
H2       0.76707    0.41461    0.27577   1.00
H2       0.79568    0.43123    0.31601   1.00
C5       0.77037    0.37290    0.32431   1.00
H2       0.76611    0.34588    0.30689   1.00
H2       0.74161    0.38239    0.33609   1.00
H2       0.78933    0.36641    0.35006   1.00
C5       0.89159    0.53950    0.17480   1.00
H2       0.90096    0.56154    0.15282   1.00
H2       0.91640    0.53558    0.19545   1.00
C5       0.85511    0.55351    0.19697   1.00
H2       0.85992    0.58350    0.20834   1.00
