data_cif
_audit_creation_method 'generated by iGOR'
_symmetry_space_group_name_H-M     'P 1'
_symmetry_Int_Tables_number        1
_symmetry_cell_setting             triclinic
_cell_length_a                     22.6522999
_cell_length_b                     22.6522999
_cell_length_c                     65.9502029
_cell_angle_alpha                  90.0000000
_cell_angle_beta                   90.0000000
_cell_angle_gamma                 120.0000000
loop_
_atom_site_label
_atom_site_fract_x
_atom_site_fract_y
_atom_site_fract_z
 O1   0.00000000       0.00000000      0.574699998    
 Zn   0.00000000       0.00000000      0.545599997    
 Zn  0.948430002       4.28700000E-02  0.583570004    
 Zn   9.44299996E-02   5.15699983E-02  0.583570004    
 Zn  0.957130015      0.905569971      0.583570004    
 O2  0.938600004       2.61000004E-02  0.535600007    
 O2   8.74999985E-02   6.14000000E-02  0.535600007    
 O2  0.973900020      0.912500024      0.535600007    
 O2  0.912999988       7.15999976E-02  0.561500013    
 O2   4.62999986E-03  0.120269999      0.600769997    
 O2  0.874130011      0.980769992      0.600369990    
 O2  0.158600003       8.69999975E-02  0.561500013    
 O2  0.106629997      0.125870004      0.600369990    
 O2  0.115630001      0.995369971      0.600769997    
 O2  0.928399980      0.841400027      0.561500013    
 O2  0.879729986      0.884370029      0.600769997    
 O2   1.92300007E-02  0.893369973      0.600369990    
 C1  0.913900018       6.01999983E-02  0.543299973    
 C1  0.146300003       8.60999972E-02  0.543299973    
 C1  0.939800024      0.853699982      0.543299973    
 C1   6.66299984E-02  0.143969998      0.606369972    
 C1  0.856029987      0.922670007      0.606369972    
 C1   7.73300007E-02  0.933369994      0.606369972    
 O1   0.00000000       0.00000000      0.925300002    
 Zn   0.00000000       0.00000000      0.954400003    
 Zn   4.28700000E-02  0.948430002      0.916429996    
 Zn   5.15699983E-02   9.44299996E-02  0.916429996    
 Zn  0.905569971      0.957130015      0.916429996    
 O2   2.61000004E-02  0.938600004      0.964399993    
 O2   6.14000000E-02   8.74999985E-02  0.964399993    
 O2  0.912500024      0.973900020      0.964399993    
 O2   7.15999976E-02  0.912999988      0.938499987    
 O2  0.120269999       4.62999986E-03  0.899230003    
 O2  0.980769992      0.874130011      0.899630010    
 O2   8.69999975E-02  0.158600003      0.938499987    
 O2  0.125870004      0.106629997      0.899630010    
 O2  0.995369971      0.115630001      0.899230003    
 O2  0.841400027      0.928399980      0.938499987    
 O2  0.884370029      0.879729986      0.899230003    
 O2  0.893369973       1.92300007E-02  0.899630010    
 C1   6.01999983E-02  0.913900018      0.956700027    
 C1   8.60999972E-02  0.146300003      0.956700027    
 C1  0.853699982      0.939800024      0.956700027    
 C1  0.143969998       6.66299984E-02  0.893630028    
 C1  0.922670007      0.856029987      0.893630028    
 C1  0.933369994       7.73300007E-02  0.893630028    
 O1   0.00000000       0.00000000      0.425300002    
 Zn   0.00000000       0.00000000      0.454400003    
 Zn   5.15699983E-02  0.957130015      0.416429996    
 Zn  0.905569971      0.948430002      0.416429996    
 Zn   4.28700000E-02   9.44299996E-02  0.416429996    
 O2   6.14000000E-02  0.973900020      0.464399993    
 O2  0.912500024      0.938600004      0.464399993    
 O2   2.61000004E-02   8.74999985E-02  0.464399993    
 O2   8.69999975E-02  0.928399980      0.438499987    
 O2  0.995369971      0.879729986      0.399230003    
 O2  0.125870004       1.92300007E-02  0.399630010    
 O2  0.841400027      0.912999988      0.438499987    
 O2  0.893369973      0.874130011      0.399630010    
 O2  0.884370029       4.62999986E-03  0.399230003    
 O2   7.15999976E-02  0.158600003      0.438499987    
 O2  0.120269999      0.115630001      0.399230003    
 O2  0.980769992      0.106629997      0.399630010    
 C1   8.60999972E-02  0.939800024      0.456699997    
 C1  0.853699982      0.913900018      0.456699997    
 C1   6.01999983E-02  0.146300003      0.456699997    
 C1  0.933369994      0.856029987      0.393629998    
 C1  0.143969998       7.73300007E-02  0.393629998    
 C1  0.922670007       6.66299984E-02  0.393629998    
 O1   0.00000000       0.00000000       7.46999979E-02
 Zn   0.00000000       0.00000000       4.56000008E-02
 Zn  0.957130015       5.15699983E-02   8.35700035E-02
 Zn  0.948430002      0.905569971       8.35700035E-02
 Zn   9.44299996E-02   4.28700000E-02   8.35700035E-02
 O2  0.973900020       6.14000000E-02   3.55999991E-02
 O2  0.938600004      0.912500024       3.55999991E-02
 O2   8.74999985E-02   2.61000004E-02   3.55999991E-02
 O2  0.928399980       8.69999975E-02   6.15000017E-02
 O2  0.879729986      0.995369971      0.100769997    
 O2   1.92300007E-02  0.125870004      0.100369997    
 O2  0.912999988      0.841400027       6.15000017E-02
 O2  0.874130011      0.893369973      0.100369997    
 O2   4.62999986E-03  0.884370029      0.100769997    
 O2  0.158600003       7.15999976E-02   6.15000017E-02
 O2  0.115630001      0.120269999      0.100769997    
 O2  0.106629997      0.980769992      0.100369997    
 C1  0.939800024       8.60999972E-02   4.32999991E-02
 C1  0.913900018      0.853699982       4.32999991E-02
 C1  0.146300003       6.01999983E-02   4.32999991E-02
 C1  0.856029987      0.933369994      0.106370002    
 C1   7.73300007E-02  0.143969998      0.106370002    
 C1   6.66299984E-02  0.922670007      0.106370002    
 O1  0.666670024      0.333330005      0.908029974    
 Zn  0.666670024      0.333330005      0.878929973    
 Zn  0.615100026      0.376199991      0.916899979    
 Zn  0.761099994      0.384900004      0.916899979    
 Zn  0.623799980      0.238900006      0.916899979    
 O2  0.605270028      0.359429985      0.868929982    
 O2  0.754170001      0.394730002      0.868929982    
 O2  0.640569985      0.245829999      0.868929982    
 O2  0.579670012      0.404929996      0.894829988    
 O2  0.671299994      0.453599989      0.934099972    
 O2  0.540799975      0.314099997      0.933700025    
 O2  0.825269997      0.420329988      0.894829988    
 O2  0.773299992      0.459199995      0.933700025    
 O2  0.782299995      0.328700006      0.934099972    
 O2  0.595070004      0.174730003      0.894829988    
 O2  0.546400011      0.217700005      0.934099972    
 O2  0.685899973      0.226699993      0.933700025    
 C1  0.580569983      0.393530011      0.876630008    
 C1  0.812969983      0.419429988      0.876630008    
 C1  0.606469989      0.187030002      0.876630008    
 C1  0.733299971      0.477299988      0.939700007    
 C1  0.522700012      0.256000012      0.939700007    
 C1  0.744000018      0.266700000      0.939700007    
 O1  0.666670024      0.333330005      0.258630008    
 Zn  0.666670024      0.333330005      0.287730008    
 Zn  0.709529996      0.281769991      0.249770001    
 Zn  0.718230009      0.427769989      0.249770001    
 Zn  0.572229981      0.290470004      0.249770001    
 O2  0.692770004      0.271930009      0.297729999    
 O2  0.728070021      0.420830011      0.297729999    
 O2  0.579169989      0.307229996      0.297729999    
 O2  0.738269985      0.246329993      0.271829993    
 O2  0.786930025      0.337969989      0.232570007    
 O2  0.647430003      0.207470000      0.232969999    
 O2  0.753669977      0.491930008      0.271829993    
 O2  0.792530000      0.439969987      0.232969999    
 O2  0.662029982      0.448969990      0.232570007    
 O2  0.508069992      0.261729985      0.271829993    
 O2  0.551029980      0.213070005      0.232570007    
 O2  0.560029984      0.352569997      0.232969999    
 C1  0.726870000      0.247229993      0.290030003    
 C1  0.752770007      0.479629993      0.290030003    
 C1  0.520370007      0.273130000      0.290030003    
 C1  0.810630023      0.399969995      0.226970002    
 C1  0.589330018      0.189370006      0.226970002    
 C1  0.600030005      0.410670012      0.226970002    
 O1  0.666670024      0.333330005      0.758629978    
 Zn  0.666670024      0.333330005      0.787729979    
 Zn  0.718230009      0.290470004      0.749769986    
 Zn  0.572229981      0.281769991      0.749769986    
 Zn  0.709529996      0.427769989      0.749769986    
 O2  0.728070021      0.307229996      0.797730029    
 O2  0.579169989      0.271930009      0.797730029    
 O2  0.692770004      0.420830011      0.797730029    
 O2  0.753669977      0.261729985      0.771830022    
 O2  0.662029982      0.213070005      0.732569993    
 O2  0.792530000      0.352569997      0.732969999    
 O2  0.508069992      0.246329993      0.771830022    
 O2  0.560029984      0.207470000      0.732969999    
 O2  0.551029980      0.337969989      0.732569993    
 O2  0.738269985      0.491930008      0.771830022    
 O2  0.786930025      0.448969990      0.732569993    
 O2  0.647430003      0.439969987      0.732969999    
 C1  0.752770007      0.273130000      0.790030003    
 C1  0.520370007      0.247229993      0.790030003    
 C1  0.726870000      0.479629993      0.790030003    
 C1  0.600030005      0.189370006      0.726970017    
 C1  0.810630023      0.410670012      0.726970017    
 C1  0.589330018      0.399969995      0.726970017    
 O1  0.666670024      0.333330005      0.408030003    
 Zn  0.666670024      0.333330005      0.378930002    
 Zn  0.623799980      0.384900004      0.416900009    
 Zn  0.615100026      0.238900006      0.416900009    
 Zn  0.761099994      0.376199991      0.416900009    
 O2  0.640569985      0.394730002      0.368930012    
 O2  0.605270028      0.245829999      0.368930012    
 O2  0.754170001      0.359429985      0.368930012    
 O2  0.595070004      0.420329988      0.394829988    
 O2  0.546400011      0.328700006      0.434100002    
 O2  0.685899973      0.459199995      0.433699995    
 O2  0.579670012      0.174730003      0.394829988    
 O2  0.540799975      0.226699993      0.433699995    
 O2  0.671299994      0.217700005      0.434100002    
 O2  0.825269997      0.404929996      0.394829988    
 O2  0.782299995      0.453599989      0.434100002    
 O2  0.773299992      0.314099997      0.433699995    
 C1  0.606469989      0.419429988      0.376630008    
 C1  0.580569983      0.187030002      0.376630008    
 C1  0.812969983      0.393530011      0.376630008    
 C1  0.522700012      0.266700000      0.439700007    
 C1  0.744000018      0.477299988      0.439700007    
 C1  0.733299971      0.256000012      0.439700007    
 O1  0.333330005      0.666670024      0.241370007    
 Zn  0.333330005      0.666670024      0.212270007    
 Zn  0.281769991      0.709529996      0.250230014    
 Zn  0.427769989      0.718230009      0.250230014    
 Zn  0.290470004      0.572229981      0.250230014    
 O2  0.271930009      0.692770004      0.202270001    
 O2  0.420830011      0.728070021      0.202270001    
 O2  0.307229996      0.579169989      0.202270001    
 O2  0.246329993      0.738269985      0.228169993    
 O2  0.337969989      0.786930025      0.267430007    
 O2  0.207470000      0.647430003      0.267030001    
 O2  0.491930008      0.753669977      0.228169993    
 O2  0.439969987      0.792530000      0.267030001    
 O2  0.448969990      0.662029982      0.267430007    
 O2  0.261729985      0.508069992      0.228169993    
 O2  0.213070005      0.551029980      0.267430007    
 O2  0.352569997      0.560029984      0.267030001    
 C1  0.247229993      0.726870000      0.209969997    
 C1  0.479629993      0.752770007      0.209969997    
 C1  0.273130000      0.520370007      0.209969997    
 C1  0.399969995      0.810630023      0.273030013    
 C1  0.189370006      0.589330018      0.273030013    
 C1  0.410670012      0.600030005      0.273030013    
 O1  0.333330005      0.666670024      0.591970026    
 Zn  0.333330005      0.666670024      0.621070027    
 Zn  0.376199991      0.615100026      0.583100021    
 Zn  0.384900004      0.761099994      0.583100021    
 Zn  0.238900006      0.623799980      0.583100021    
 O2  0.359429985      0.605270028      0.631070018    
 O2  0.394730002      0.754170001      0.631070018    
 O2  0.245829999      0.640569985      0.631070018    
 O2  0.404929996      0.579670012      0.605170012    
 O2  0.453599989      0.671299994      0.565900028    
 O2  0.314099997      0.540799975      0.566299975    
 O2  0.420329988      0.825269997      0.605170012    
 O2  0.459199995      0.773299992      0.566299975    
 O2  0.328700006      0.782299995      0.565900028    
 O2  0.174730003      0.595070004      0.605170012    
 O2  0.217700005      0.546400011      0.565900028    
 O2  0.226699993      0.685899973      0.566299975    
 C1  0.393530011      0.580569983      0.623369992    
 C1  0.419429988      0.812969983      0.623369992    
 C1  0.187030002      0.606469989      0.623369992    
 C1  0.477299988      0.733299971      0.560299993    
 C1  0.256000012      0.522700012      0.560299993    
 C1  0.266700000      0.744000018      0.560299993    
 O1  0.333330005      0.666670024       9.19699967E-02
 Zn  0.333330005      0.666670024      0.121069998    
 Zn  0.384900004      0.623799980       8.30999985E-02
 Zn  0.238900006      0.615100026       8.30999985E-02
 Zn  0.376199991      0.761099994       8.30999985E-02
 O2  0.394730002      0.640569985      0.131070003    
 O2  0.245829999      0.605270028      0.131070003    
 O2  0.359429985      0.754170001      0.131070003    
 O2  0.420329988      0.595070004      0.105169997    
 O2  0.328700006      0.546400011       6.58999979E-02
 O2  0.459199995      0.685899973       6.62999973E-02
 O2  0.174730003      0.579670012      0.105169997    
 O2  0.226699993      0.540799975       6.62999973E-02
 O2  0.217700005      0.671299994       6.58999979E-02
 O2  0.404929996      0.825269997      0.105169997    
 O2  0.453599989      0.782299995       6.58999979E-02
 O2  0.314099997      0.773299992       6.62999973E-02
 C1  0.419429988      0.606469989      0.123369999    
 C1  0.187030002      0.580569983      0.123369999    
 C1  0.393530011      0.812969983      0.123369999    
 C1  0.266700000      0.522700012       6.03000000E-02
 C1  0.477299988      0.744000018       6.03000000E-02
 C1  0.256000012      0.733299971       6.03000000E-02
 O1  0.333330005      0.666670024      0.741370022    
 Zn  0.333330005      0.666670024      0.712270021    
 Zn  0.290470004      0.718230009      0.750230014    
 Zn  0.281769991      0.572229981      0.750230014    
 Zn  0.427769989      0.709529996      0.750230014    
 O2  0.307229996      0.728070021      0.702269971    
 O2  0.271930009      0.579169989      0.702269971    
 O2  0.420830011      0.692770004      0.702269971    
 O2  0.261729985      0.753669977      0.728169978    
 O2  0.213070005      0.662029982      0.767430007    
 O2  0.352569997      0.792530000      0.767030001    
 O2  0.246329993      0.508069992      0.728169978    
 O2  0.207470000      0.560029984      0.767030001    
 O2  0.337969989      0.551029980      0.767430007    
 O2  0.491930008      0.738269985      0.728169978    
 O2  0.448969990      0.786930025      0.767430007    
 O2  0.439969987      0.647430003      0.767030001    
 C1  0.273130000      0.752770007      0.709969997    
 C1  0.247229993      0.520370007      0.709969997    
 C1  0.479629993      0.726870000      0.709969997    
 C1  0.189370006      0.600030005      0.773029983    
 C1  0.410670012      0.810630023      0.773029983    
 C1  0.399969995      0.589330018      0.773029983    
 C2  0.770749986      0.524659991      0.458490014    
 C3  0.732779980      0.536819994      0.471300006    
 H1  0.685800016      0.507950008      0.471199989    
 C3  0.839429975      0.566380024      0.459280014    
 H1  0.867030025      0.558170021      0.450659990    
 C3  0.760320008      0.590390027      0.484770000    
 H1  0.733810008      0.598810017      0.493790001    
 C3  0.869350016      0.620649993      0.472579986    
 H1  0.916459978      0.648419976      0.473230004    
 C6  0.829819977      0.632520020      0.485799998    
 C6  0.861580014      0.689979970      0.500379980    
 C3  0.877740026      0.679769993      0.519850016    
 H1  0.873619974      0.638109982      0.523360014    
 C3  0.872910023      0.753260016      0.493930012    
 H1  0.862089992      0.761749983      0.481059998    
 C3  0.904330015      0.733820021      0.533360004    
 H1  0.916260004      0.727450013      0.546350002    
 C3  0.899140000      0.806370020      0.509050012    
 H1  0.906310022      0.849120021      0.505429983    
 C2  0.913699985      0.796400011      0.528100014    
 C2  0.475340009      0.246089995      0.458490014    
 C3  0.463180006      0.195960000      0.471300006    
 H1  0.492049992      0.177849993      0.471199989    
 C3  0.433620006      0.273050010      0.459280014    
 H1  0.441830009      0.308860004      0.450659990    
 C3  0.409610003      0.169929996      0.484770000    
 H1  0.401190013      0.135010004      0.493790001    
 C3  0.379350007      0.248699993      0.472579986    
 H1  0.351579994      0.268040001      0.473230004    
 C6  0.367480010      0.197300002      0.485799998    
 C6  0.308600008      0.170800000      0.499900013    
 C3  0.323399991      0.173800007      0.520399988    
 H1  0.368519992      0.196079999      0.524730027    
 C3  0.242100000      0.143600002      0.492900014    
 H1  0.230299994      0.140190005      0.479270011    
 C3  0.270200014      0.147400007      0.534200013    
 H1  0.280000001      0.150299996      0.547999978    
 C3  0.189600006      0.115699999      0.508199990    
 H1  0.144400001       9.60000008E-02  0.504100025    
 C2  0.203600004      0.117299996      0.528100014    
 C2  0.757900000      0.225799993      0.456000000    
 C3  0.821500003      0.259799987      0.462900013    
 H1  0.850199997      0.303799987      0.458200008    
 C3  0.716300011      0.162300006      0.463499993    
 H1  0.671299994      0.137999997      0.459100008    
 C3  0.846499979      0.232500002      0.476799995    
 H1  0.890929997      0.256330013      0.481689990    
 C3  0.739099979      0.132900000      0.477499992    
 H1  0.710060000       8.97800028E-02  0.482769996    
 C6  0.804600000      0.168500006      0.484600008    
 C6  0.829200029      0.137799993      0.499900013    
 C3  0.826200008      0.149599999      0.520399988    
 H1  0.803919971      0.172440007      0.524730027    
 C3  0.856400013       9.84999985E-02  0.492900014    
 H1  0.859809995       9.00999978E-02  0.479270011    
 C3  0.852599978      0.122800000      0.534200013    
 H1  0.849699974      0.129700005      0.547999978    
 C3  0.884299994       7.38999993E-02  0.508199990    
 H1  0.903999984       4.83999997E-02  0.504100025    
 C2  0.882700026       8.63000005E-02  0.528100014    
 C2  0.544269979      0.804350019       4.75800000E-02
 C3  0.610419989      0.839450002       5.18699996E-02
 H1  0.623790026      0.849200010       6.53500035E-02
 C3  0.525940001      0.789059997       2.78299991E-02
 H1  0.479930013      0.763670027       2.45200004E-02
 C3  0.659979999      0.861760020       3.71299982E-02
 H1  0.706290007      0.886120021       4.01199982E-02
 C3  0.573880017      0.810209990       1.25200003E-02
 H1  0.560959995      0.798740029      -9.39999998E-04
 C6  0.641910017      0.846019983       1.71099994E-02
 C6  0.693790019      0.867940009       8.09999998E-04
 C3  0.721729994      0.827820003      0.995549977    
 H1  0.704249978      0.784529984       1.00111997    
 C3  0.714049995      0.930239975      0.991469979    
 H1  0.696889997      0.958720028      0.994759977    
 C3  0.772379994      0.851409972      0.980929971    
 H1  0.790499985      0.824119985      0.977129996    
 C3  0.768180013      0.951870024      0.976790011    
 H1  0.783959985      0.993770003      0.970459998    
 C2  0.796400011      0.913699985      0.971899986    
 C2  0.260080010      0.455729991       4.75800000E-02
 C3  0.229029998      0.389580011       5.18699996E-02
 H1  0.225409999      0.376210004       6.53500035E-02
 C3  0.263119996      0.474059999       2.78299991E-02
 H1  0.283740014      0.520070016       2.45200004E-02
 C3  0.201780006      0.340020001       3.71299982E-02
 H1  0.179839998      0.293709993       4.01199982E-02
 C3  0.236330003      0.426120013       1.25200003E-02
 H1  0.237780005      0.439040005      -9.39999998E-04
 C6  0.204109997      0.358090013       1.71099994E-02
 C6  0.170800000      0.308600008       9.99999975E-05
 C3  0.173800007      0.323399991      0.979600012    
 H1  0.196079999      0.368519992      0.975269973    
 C3  0.143600002      0.242100000       7.10000005E-03
 H1  0.140190005      0.230299994       2.07300000E-02
 C3  0.147400007      0.270200014      0.965799987    
 H1  0.150299996      0.280000001      0.952000022    
 C3  0.115699999      0.189600006      0.991800010    
 H1   9.60000008E-02  0.144400001      0.995899975    
 C2  0.117299996      0.203600004      0.971899986    
 C2  0.225799993      0.757900000       4.39999998E-02
 C3  0.259799987      0.821500003       3.70999984E-02
 H1  0.303799987      0.850199997       4.17999998E-02
 C3  0.162300006      0.716300011       3.64999995E-02
 H1  0.137999997      0.671299994       4.08999994E-02
 C3  0.232500002      0.846499979       2.31999997E-02
 H1  0.256330013      0.890929997       1.83099993E-02
 C3  0.132900000      0.739099979       2.25000009E-02
 H1   8.97800028E-02  0.710060000       1.72300003E-02
 C6  0.168500006      0.804600000       1.53999999E-02
 C6  0.137799993      0.829200029       9.99999975E-05
 C3  0.149599999      0.826200008      0.979600012    
 H1  0.172440007      0.803919971      0.975269973    
 C3   9.84999985E-02  0.856400013       7.10000005E-03
 H1   9.00999978E-02  0.859809995       2.07300000E-02
 C3  0.122800000      0.852599978      0.965799987    
 H1  0.129700005      0.849699974      0.952000022    
 C3   7.38999993E-02  0.884299994      0.991800010    
 H1   4.83999997E-02  0.903999984      0.995899975    
 C2   8.63000005E-02  0.882700026      0.971899986    
 C2  0.195649996      0.455729991      0.547580004    
 C3  0.160549998      0.389580011      0.551869988    
 H1  0.150800005      0.376210004      0.565349996    
 C3  0.210940003      0.474059999      0.527830005    
 H1  0.236330003      0.520070016      0.524519980    
 C4  0.138239995      0.340020001      0.537129998    
 C5   9.83700007E-02  0.264239997      0.542020023    
 H2  0.129519999      0.248219997      0.544889987    
 H2   7.00099990E-02  0.256960005      0.553640008    
 H2   7.03700036E-02  0.239800006      0.530650020    
 C4  0.189789996      0.426120013      0.512520015    
 C5  0.208939999      0.447690010      0.490049988    
 H2  0.172700003      0.450569987      0.483520001    
 H2  0.250030011      0.491109997      0.489470005    
 H2  0.216030002      0.414319992      0.483220011    
 C6  0.153980002      0.358090013      0.517109990    
 C6  0.132060006      0.306210011      0.500810027    
 C4  0.172179997      0.278270006      0.495550007    
 C5  0.241170004      0.306120008      0.504419982    
 H2  0.238429993      0.281230003      0.516489983    
 H2  0.270449996      0.301930010      0.494839996    
 H2  0.259020001      0.353500009      0.507730007    
 C4   6.97600022E-02  0.285950005      0.491470009    
 C5   2.29599997E-02  0.314139992      0.496870011    
 H2   3.54800001E-02  0.354479998      0.488970011    
 H2  -2.34399997E-02  0.280510008      0.493999988    
 H2   2.76800003E-02  0.325560004      0.510999978    
 C3  0.148589998      0.227620006      0.480930001    
 H1  0.175880000      0.209500000      0.477129996    
 C3   4.81299981E-02  0.231820002      0.476790011    
 H1   6.22999994E-03  0.216040000      0.470459998    
 C2   8.63000005E-02  0.203600004      0.471899986    
 C2  0.544269979      0.739920020      0.547580004    
 C3  0.610419989      0.770969987      0.551869988    
 H1  0.623790026      0.774590015      0.565349996    
 C3  0.525940001      0.736880004      0.527830005    
 H1  0.479930013      0.716260016      0.524519980    
 C4  0.659979999      0.798219979      0.537129998    
 C5  0.735759974      0.834129989      0.542020023    
 H2  0.751779974      0.881299973      0.544889987    
 H2  0.743040025      0.813049972      0.553640008    
 H2  0.760200024      0.830569983      0.530650020    
 C4  0.573880017      0.763670027      0.512520015    
 C5  0.552309990      0.761250019      0.490049988    
 H2  0.549430013      0.722130001      0.483520001    
 H2  0.508889973      0.758920014      0.489470005    
 H2  0.585680008      0.801710010      0.483220011    
 C6  0.641910017      0.795889974      0.517109990    
 C6  0.688329995      0.825749993      0.499040008    
 C4  0.702069998      0.783850014      0.487010002    
 C5  0.661759973      0.708859980      0.489549994    
 H2  0.623660028      0.690410018      0.480430007    
 H2  0.689830005      0.689520001      0.486649990    
 H2  0.645539999      0.698379993      0.503319979    
 C4  0.728810012      0.896350026      0.498479992    
 C5  0.715489984      0.945010006      0.511139989    
 H2  0.737529993      0.952120006      0.524119973    
 H2  0.733259976      0.987839997      0.504230022    
 H2  0.667379975      0.925530016      0.513140023    
 C3  0.756690025      0.813430011      0.473729998    
 H1  0.766740024      0.785449982      0.465860009    
 C3  0.783609986      0.923099995      0.483900011    
 H1  0.811129987      0.970109999      0.482820004    
 C2  0.796400011      0.882700026      0.471899986    
 C2  0.259840012      0.775699973      0.538389981    
 C3  0.245770007      0.756139994      0.519159973    
 H1  0.255829990      0.723670006      0.514280021    
 C3  0.246450007      0.824580014      0.545050025    
 H1  0.256839991      0.839739978      0.558380008    
 C4  0.217069998      0.782260001      0.506139994    
 C5  0.201279998      0.760200024      0.484079987    
 H2  0.240979999      0.787199974      0.475930005    
 H2  0.188319996      0.712979972      0.482939988    
 H2  0.164550006      0.766330004      0.479470015    
 C4  0.217840001      0.852379978      0.532519996    
 C5  0.204239994      0.909330010      0.540180027    
 H2  0.158089995      0.889479995      0.544790030    
 H2  0.234850004      0.933709979      0.551090002    
 H2  0.211520001      0.940320015      0.529269993    
 C6  0.203889996      0.832159996      0.512700021    
 C6  0.174250007      0.862580001      0.499040008    
 C4  0.216150001      0.918219984      0.487010002    
 C5  0.291139990      0.952899992      0.489549994    
 H2  0.309590012      0.933250010      0.480430007    
 H2  0.310479999       3.10000003E-04  0.486649990    
 H2  0.301620007      0.947160006      0.503319979    
 C4  0.103650004      0.832459986      0.498479992    
 C5   5.49900010E-02  0.770479977      0.511139989    
 H2   4.78800014E-02  0.785409987      0.524119973    
 H2   1.21600004E-02  0.745419979      0.504230022    
 H2   7.44699985E-02  0.741850019      0.513140023    
 C3  0.186570004      0.943260014      0.473729998    
 H1  0.214550003      0.981289983      0.465860009    
 C3   7.68999979E-02  0.860509992      0.483900011    
 H1   2.98900008E-02  0.841019988      0.482820004    
 C2  0.117299996      0.913699985      0.471899986    
 C2  0.485439986      0.220170006      0.962140024    
 C3  0.492439985      0.228330001      0.982119977    
 H1  0.536099970      0.251870006      0.987559974    
 C3  0.421209991      0.183970004      0.954559982    
 H1  0.415190011      0.176789999      0.940639973    
 C4  0.437530011      0.203050002      0.995079994    
 C5  0.445459992      0.212019995       1.79699995E-02
 H2  0.450639993      0.175929993       2.37199999E-02
 H2  0.485040009      0.255100012       2.10299995E-02
 H2  0.405860007      0.210850000       2.36000009E-02
 C4  0.364609987      0.157509997      0.966989994    
 C5  0.291520000      0.114900000      0.958180010    
 H2  0.272560000      0.143810004      0.955910027    
 H2  0.293210000       9.43500027E-02  0.945640028    
 H2  0.263410002       7.98000023E-02  0.967649996    
 C6  0.372370005      0.165859997      0.987559974    
 C6  0.311910003      0.136610001       1.06000004E-03
 C4  0.287649989       7.27100000E-02   9.63999983E-03
 C5  0.316740006       2.96700001E-02   3.40999989E-03
 H2  0.353570014       3.78400013E-02   1.23199997E-02
 H2  0.282240003      -1.72400009E-02   4.08999994E-03
 H2  0.333490014       4.10199985E-02  0.989709973    
 C4  0.281940013      0.176039994       5.04999980E-03
 C5  0.307130009      0.247160003      0.996280015    
 H2  0.285820007      0.243290007      0.983340025    
 H2  0.295720011      0.273030013       5.35999984E-03
 H2  0.355599999      0.269710004      0.994530022    
 C3  0.233109996       4.83900011E-02   2.29300000E-02
 H1  0.215979993       5.04999980E-03   2.84800008E-02
 C3  0.226530001      0.147770002       1.94199998E-02
 H1  0.205899999      0.173079997       2.27499995E-02
 C2  0.203600004       8.63000005E-02   2.81000007E-02
 C2  0.734730005      0.514559984      0.962140024    
 C3  0.735889971      0.507560015      0.982119977    
 H1  0.715770006      0.463900000      0.987559974    
 C3  0.762759984      0.578790009      0.954559982    
 H1  0.761600018      0.584810019      0.940639973    
 C4  0.765519977      0.562470019      0.995079994    
 C5  0.766560018      0.554539979       1.79699995E-02
 H2  0.725290000      0.549359977       2.37199999E-02
 H2  0.770060003      0.514959991       2.10299995E-02
 H2  0.804989994      0.594139993       2.36000009E-02
 C4  0.792900026      0.635389984      0.966989994    
 C5  0.823379993      0.708480000      0.958180010    
 H2  0.871249974      0.727440000      0.955910027    
 H2  0.801140010      0.706789970      0.945640028    
 H2  0.816389978      0.736590028      0.967649996    
 C6  0.793489993      0.627629995      0.987559974    
 C6  0.827750027      0.693679988      0.999189973    
 C3  0.880710006      0.700940013       1.14399996E-02
 H1  0.895959973      0.669780016       1.05100004E-02
 C3  0.799179971      0.735220015       1.36999995E-03
 H1  0.764100015      0.732200027      -6.69999979E-03
 C3  0.906830013      0.752120018       2.59000007E-02
 H1  0.941670001      0.756460011       3.43800001E-02
 C3  0.830399990      0.788290024       1.64199993E-02
 H1  0.813520014      0.817870021       1.81000009E-02
 C2  0.882700026      0.796400011       2.81000007E-02
 C2  0.793929994      0.250110000      0.952359974    
 C3  0.802680016      0.197099999      0.949069977    
 H1  0.791859984      0.176430002      0.936380029    
 C3  0.808269978      0.278329998      0.971180022    
 H1  0.801549971      0.314830005      0.973900020    
 C3  0.826910019      0.171419993      0.963729978    
 H1  0.832840025      0.134189993      0.961459994    
 C3  0.832539976      0.254170001      0.986379981    
 H1  0.841359973      0.273169994      0.999300003    
 C6  0.841009974      0.199290007      0.982860029    
 C6  0.865930021      0.172250003      0.999189973    
 C3  0.820230007      0.119290002       1.14399996E-02
 H1  0.773829997      0.104039997       1.05100004E-02
 C3  0.936039984      0.200819999       1.36999995E-03
 H1  0.968100011      0.235900000      -6.69999979E-03
 C3  0.845290005       9.31700021E-02   2.59000007E-02
 H1  0.814790010       5.83299994E-02   3.43800001E-02
 C3  0.957889974      0.169599995       1.64199993E-02
 H1   4.35000006E-03  0.186480001       1.81000009E-02
 C2  0.913699985      0.117299996       2.81000007E-02
 C2  0.460599989      0.877149999      0.785690010    
 C3  0.469350010      0.938910007      0.782400012    
 H1  0.458530009      0.948759973      0.769710004    
 C3  0.474940002      0.863269985      0.804509997    
 H1  0.468219995      0.820050001      0.807229996    
 C4  0.493580014      0.988820016      0.797060013    
 C5  0.503279984       5.94400018E-02  0.793340027    
 H2  0.461290002       5.88200018E-02  0.795970023    
 H2  0.516510010       7.23299980E-02  0.779489994    
 H2  0.538169980       9.16899964E-02  0.802160025    
 C4  0.499210000      0.911700010      0.819710016    
 C5  0.513930023      0.894699991      0.841279984    
 H2  0.561160028      0.908169985      0.842410028    
 H2  0.486389995      0.846669972      0.843710005    
 H2  0.503130019      0.919040024      0.851149976    
 C6  0.507679999      0.975049973      0.816190004    
 C6  0.532599986       2.70099994E-02  0.832520008    
 C4  0.486900002       3.42699997E-02  0.844770014    
 C5  0.412950009      0.984619975      0.843289971    
 H2  0.392430007       8.69999989E-04  0.833720028    
 H2  0.392250001      0.979409993      0.856270015    
 H2  0.406590015      0.941320002      0.838800013    
 C4  0.602710009       6.85499981E-02  0.834699988    
 C5  0.655390024       6.35899976E-02  0.821439981    
 H2  0.665880024       3.08299996E-02  0.827189982    
 H2  0.696150005      0.107280001      0.820749998    
 H2  0.637160003       4.91599999E-02  0.808080018    
 C3  0.511960030       8.54500011E-02  0.859229982    
 H1  0.481460005       8.97900015E-02  0.867709994    
 C3  0.624559999      0.121619999      0.849749982    
 H1  0.671019971      0.151199996      0.851429999    
 C2  0.580370009      0.129730001      0.861429989    
 C2  0.122850001      0.583440006      0.785690010    
 C3   6.10900000E-02  0.530430019      0.782400012    
 H1   5.12400009E-02  0.509760022      0.769710004    
 C3  0.136730000      0.611660004      0.804509997    
 H1  0.179949999      0.648159981      0.807229996    
 C4   1.11800004E-02  0.504750013      0.797060013    
 C5  0.940559983      0.443830013      0.793340027    
 H2  0.941179991      0.402460009      0.795970023    
 H2  0.927670002      0.444169998      0.779489994    
 H2  0.908309996      0.446469992      0.802160025    
 C4   8.82999972E-02  0.587499976      0.819710016    
 C5  0.105300002      0.619220018      0.841279984    
 H2   9.18300003E-02  0.652980030      0.842410028    
 H2  0.153329998      0.639710009      0.843710005    
 H2   8.09599981E-02  0.584079981      0.851149976    
 C6   2.49499995E-02  0.532620013      0.816190004    
 C6  0.972829998      0.506470025      0.832490027    
 C4  0.955540001      0.444339991      0.841310024    
 C5  0.994650006      0.409909993      0.836210012    
 H2  0.973140001      0.379299998      0.825070024    
 H2  0.995859981      0.384939998      0.847710013    
 H2   4.04499993E-02  0.443699986      0.832480013    
 C4  0.941730022      0.543510020      0.838209987    
 C5  0.957949996      0.611649990      0.828800023    
 H2  0.995450020      0.648249984      0.835959971    
 H2  0.918720007      0.617169976      0.829720020    
 H2  0.970269978      0.612569988      0.814849973    
 C3  0.904680014      0.417820007      0.855870008    
 H1  0.893670022      0.376610011      0.862060010    
 C3  0.888170004      0.511569977      0.853089988    
 H1  0.865329981      0.534179986      0.857070029    
 C2  0.870270014      0.450630009      0.861429989    
 C2  0.411839992      0.533940017      0.785549998    
 C3  0.454789996      0.511720002      0.781350017    
 H1  0.467649996      0.512030005      0.767939985    
 C3  0.395229995      0.534810007      0.805299997    
 H1  0.366039991      0.551100016      0.808610022    
 C4  0.481189996      0.488469988      0.796079993    
 C5  0.530650020      0.463349998      0.791299999    
 H2  0.576380014      0.501299977      0.791130006    
 H2  0.519869983      0.441560000      0.778270006    
 H2  0.526830018      0.431309998      0.801450014    
 C4  0.420590013      0.512130022      0.820599973    
 C5  0.402429998      0.514840007      0.843159974    
 H2  0.364540011      0.471760005      0.847050011    
 H2  0.391039997      0.550000012      0.844919980    
 H2  0.440959990      0.524590015      0.851520002    
 C6  0.465090007      0.489690006      0.816120028    
 C6  0.493530005      0.466349989      0.832490027    
 C4  0.555660009      0.511189997      0.841310024    
 C5  0.590089977      0.584730029      0.836210012    
 H2  0.620700002      0.593829989      0.825070024    
 H2  0.615059972      0.610909998      0.847710013    
 H2  0.556299984      0.596740007      0.832480013    
 C4  0.456490010      0.398209989      0.838209987    
 C5  0.388350010      0.346289992      0.828800023    
 H2  0.351749986      0.347189993      0.835959971    
 H2  0.382829994      0.301539987      0.829720020    
 H2  0.387430012      0.357690006      0.814849973    
 C3  0.582180023      0.486849993      0.855870008    
 H1  0.623390019      0.517050028      0.862060010    
 C3  0.488429993      0.376590014      0.853089988    
 H1  0.465820014      0.331140012      0.857070029    
 C2  0.549369991      0.419629991      0.861429989    
 C2  0.195219994      0.105279997      0.376159996    
 C3  0.216299996       6.78400025E-02  0.366400003    
 H1  0.194370002       2.12200005E-02  0.368869990    
 C3  0.226769999      0.172979996      0.371890008    
 H1  0.212149993      0.199949995      0.378320009    
 C4  0.269219995       9.53700021E-02  0.352710009    
 C5  0.293190002       5.25199994E-02  0.341439992    
 H2  0.266449988       3.40499990E-02  0.329369992    
 H2  0.287860006       1.59300007E-02  0.350019991    
 H2  0.340290010       8.04200023E-02  0.337859988    
 C4  0.279980004      0.202810004      0.358220011    
 C5  0.314579993      0.279969990      0.353130013    
 H2  0.354209989      0.304879993      0.361429989    
 H2  0.283120006      0.295890003      0.355540007    
 H2  0.327850014      0.286810011      0.339120001    
 C6  0.301059991      0.163739994      0.348170012    
 C6  0.357389987      0.195120007      0.333200008    
 C4  0.343540013      0.196229994      0.312779993    
 C5  0.272960007      0.173659995      0.306059986    
 H2  0.250310004      0.126010001      0.302800000    
 H2  0.274150014      0.199059993      0.294360012    
 H2  0.248779997      0.181270003      0.316830009    
 C4  0.423629999      0.221630007      0.340369999    
 C5  0.441819996      0.220829993      0.362639993    
 H2  0.446940005      0.260949999      0.369309992    
 H2  0.483770013      0.220200002      0.363550007    
 H2  0.406060010      0.181089997      0.369100004    
 C3  0.397179991      0.223020002      0.299129993    
 H1  0.388179988      0.224840000      0.285430014    
 C3  0.476350009      0.247020006      0.325129986    
 H1  0.521210015      0.264109999      0.329279989    
 C2  0.463070005      0.247030005      0.305229992    
 C2  0.910070002      0.804780006      0.376159996    
 C3  0.851549983      0.783699989      0.366400003    
 H1  0.826860011      0.805630028      0.368869990    
 C3  0.946219981      0.773230016      0.371890008    
 H1  0.987810016      0.787850022      0.378320009    
 C4  0.826160014      0.730780005      0.352710009    
 C5  0.759339988      0.706809998      0.341439992    
 H2  0.767610013      0.733550012      0.329369992    
 H2  0.728079975      0.712140024      0.350019991    
 H2  0.740140021      0.659709990      0.337859988    
 C4  0.922839999      0.720019996      0.358220011    
 C5  0.965399981      0.685419977      0.353130013    
 H2  0.950680017      0.645789981      0.361429989    
 H2   1.27800005E-02  0.716880023      0.355540007    
 H2  0.958970010      0.672150016      0.339120001    
 C6  0.862689972      0.698939979      0.348170012    
 C6  0.837740004      0.642610013      0.333200008    
 C4  0.852699995      0.656459987      0.312779993    
 C5  0.900709987      0.727039993      0.306059986    
 H2  0.875710011      0.749689996      0.302800000    
 H2  0.924920022      0.725849986      0.294360012    
 H2  0.932500005      0.751219988      0.316830009    
 C4  0.798009992      0.576370001      0.340369999    
 C5  0.779020011      0.558179975      0.362639993    
 H2  0.814019978      0.553059995      0.369309992    
 H2  0.736440003      0.516229987      0.363550007    
 H2  0.775039971      0.593940020      0.369100004    
 C3  0.825850010      0.602819979      0.299129993    
 H1  0.836669981      0.611819983      0.285430014    
 C3  0.770680010      0.523649991      0.325129986    
 H1  0.742910028      0.478789985      0.329279989    
 C2  0.783969998      0.536930025      0.305229992    
 C2  0.894720018       8.99299979E-02  0.376159996    
 C3  0.932160020      0.148450002      0.366400003    
 H1  0.978779972      0.173140004      0.368869990    
 C3  0.827019989       5.37800007E-02  0.371890008    
 H1  0.800050020       1.21900002E-02  0.378320009    
 C4  0.904630005      0.173840001      0.352710009    
 C5  0.947480023      0.240659997      0.341439992    
 H2  0.965950012      0.232390001      0.329369992    
 H2  0.984070003      0.271919996      0.350019991    
 H2  0.919579983      0.259860009      0.337859988    
 C4  0.797190011       7.71600008E-02  0.358220011    
 C5  0.720030010       3.46000008E-02  0.353130013    
 H2  0.695119977       4.93200012E-02  0.361429989    
 H2  0.704110026      0.987219989      0.355540007    
 H2  0.713190019       4.10300009E-02  0.339120001    
 C6  0.836260021      0.137309998      0.348170012    
 C6  0.804880023      0.162259996      0.333200008    
 C4  0.803770006      0.147300005      0.312779993    
 C5  0.826340020       9.92899984E-02  0.306059986    
 H2  0.873989999      0.124289997      0.302800000    
 H2  0.800939977       7.50799999E-02  0.294360012    
 H2  0.818729997       6.75000027E-02  0.316830009    
 C4  0.778370023      0.201989993      0.340369999    
 C5  0.779169977      0.220980003      0.362639993    
 H2  0.739049971      0.185980007      0.369309992    
 H2  0.779799998      0.263559997      0.363550007    
 H2  0.818910003      0.224959999      0.369100004    
 C3  0.776979983      0.174150005      0.299129993    
 H1  0.775160015      0.163330004      0.285430014    
 C3  0.752979994      0.229320005      0.325129986    
 H1  0.735889971      0.257090002      0.329279989    
 C2  0.752969980      0.216030002      0.305229992    
 C2  0.895669997      0.812240005      0.873610020    
 C3  0.930660009      0.807810009      0.858089983    
 H1  0.975260019      0.842689991      0.856069982    
 C3  0.829980016      0.761629999      0.875930011    
 H1  0.804250002      0.764219999      0.886520028    
 C3  0.903370023      0.753690004      0.844810009    
 H1  0.927739978      0.750649989      0.833899975    
 C3  0.800390005      0.706420004      0.862959981    
 H1  0.755110025      0.672450006      0.864480019    
 C6  0.836749971      0.702530026      0.846939981    
 C6  0.805019975      0.644029975      0.832719982    
 C3  0.774100006      0.648119986      0.815050006    
 H1  0.768450022      0.685530007      0.812799990    
 C3  0.808870018      0.586300015      0.837559998    
 H1  0.829779983      0.582069993      0.849170029    
 C3  0.747879982      0.593760014      0.801660001    
 H1  0.726109982      0.595870018      0.789929986    
 C3  0.781889975      0.532689989      0.822600007    
 H1  0.784550011      0.493719995      0.825110018    
 C2  0.752969980      0.536930025      0.805230021    
 C2  0.187759995       8.34200010E-02  0.873610020    
 C3  0.192190006      0.122840002      0.858089983    
 H1  0.157309994      0.132560000      0.856069982    
 C3  0.238370001       6.83400035E-02  0.875930011    
 H1  0.235780001       4.00200002E-02  0.886520028    
 C3  0.246309996      0.149670005      0.844810009    
 H1  0.249349996      0.177070007      0.833899975    
 C3  0.293579996       9.39600021E-02  0.862959981    
 H1  0.327549994       8.26499984E-02  0.864480019    
 C6  0.297470003      0.134210005      0.846939981    
 C6  0.355969995      0.160980001      0.832719982    
 C3  0.351880014      0.125970006      0.815050006    
 H1  0.314469993       8.29100013E-02  0.812799990    
 C3  0.413700014      0.222560003      0.837559998    
 H1  0.417930007      0.247700006      0.849170029    
 C3  0.406239986      0.154110000      0.801660001    
 H1  0.404130012      0.130229995      0.789929986    
 C3  0.467310011      0.249190003      0.822600007    
 H1  0.506280005      0.290820003      0.825110018    
 C2  0.463070005      0.216030002      0.805230021    
 C2  0.916580021      0.104330003      0.873610020    
 C3  0.877160013       6.93399981E-02  0.858089983    
 H1  0.867439985       2.47399993E-02  0.856069982    
 C3  0.931659997      0.170019999      0.875930011    
 H1  0.959980011      0.195749998      0.886520028    
 C3  0.850329995       9.66299996E-02  0.844810009    
 H1  0.822929978       7.22599998E-02  0.833899975    
 C3  0.906040013      0.199609995      0.862959981    
 H1  0.917349994      0.244890004      0.864480019    
 C6  0.865790009      0.163249999      0.846939981    
 C6  0.839020014      0.194979995      0.832719982    
 C3  0.874029994      0.225899994      0.815050006    
 H1  0.917089999      0.231549993      0.812799990    
 C3  0.777440012      0.191129997      0.837559998    
 H1  0.752300024      0.170220003      0.849170029    
 C3  0.845889986      0.252119988      0.801660001    
 H1  0.869769990      0.273889989      0.789929986    
 C3  0.750810027      0.218109995      0.822600007    
 H1  0.709179997      0.215450004      0.825110018    
 C2  0.783969998      0.247030005      0.805230021    
 C2  0.145579994      0.562330008      0.293049991    
 C3  0.141149998      0.597320020      0.308569998    
 H1  0.176029995      0.641919971      0.310589999    
 C3   9.49700028E-02  0.496639997      0.290730000    
 H1   9.75600034E-02  0.470910013      0.280140013    
 C4   8.70300010E-02  0.570029974      0.321850002    
 C5   8.20600018E-02  0.609899998      0.339700013    
 H2  0.105669998      0.605350018      0.351150006    
 H2  0.102420002      0.657140017      0.336070001    
 H2   3.50800008E-02  0.592499971      0.343109995    
 C4   3.97600010E-02  0.467049986      0.303700000    
 C5  0.983039975      0.391440004      0.301160008    
 H2  0.946219981      0.389079988      0.293390006    
 H2   1.30999996E-03  0.366580009      0.294400007    
 H2  0.966440022      0.371760011      0.314289987    
 C6   3.58700007E-02  0.503409982      0.319720000    
 C6  0.977370024      0.471679986      0.333939999    
 C4  0.981459975      0.440759987      0.351610005    
 C5   4.10800017E-02  0.431760013      0.355190009    
 H2   7.52400011E-02  0.470200002      0.362580001    
 H2   2.71799993E-02  0.391079992      0.362819999    
 H2   5.94500005E-02  0.428420007      0.342330009    
 C4  0.919640005      0.475529999      0.329100013    
 C5  0.912689984      0.509899974      0.310020000    
 H2  0.895539999      0.477450013      0.299070001    
 H2  0.881699979      0.526319981      0.312559992    
 H2  0.956480026      0.547259986      0.306369990    
 C3  0.927100003      0.414539993      0.365000010    
 H1  0.929210007      0.392769992      0.376729995    
 C3  0.866029978      0.448549986      0.344060004    
 H1  0.827059984      0.451209992      0.341549993    
 C2  0.870270014      0.419629991      0.361429989    
 C2  0.416759998      0.854420006      0.293049991    
 C3  0.456180006      0.858850002      0.308569998    
 H1  0.465900004      0.823970020      0.310589999    
 C3  0.401679993      0.905030012      0.290730000    
 H1  0.373360008      0.902440012      0.280140013    
 C4  0.483009994      0.912970006      0.321850002    
 C5  0.527849972      0.917940021      0.339700013    
 H2  0.499689996      0.894330025      0.351150006    
 H2  0.554729998      0.897580028      0.336070001    
 H2  0.557430029      0.964919984      0.343109995    
 C4  0.427300006      0.960240006      0.303700000    
 C5  0.408410013       1.69600006E-02  0.301160008    
 H2  0.442869991       5.37800007E-02  0.293390006    
 H2  0.365280002      0.998690009      0.294400007    
 H2  0.405330002       3.35600004E-02  0.314289987    
 C6  0.467550009      0.964129984      0.319720000    
 C6  0.494320005       2.26300005E-02  0.333939999    
 C4  0.459309995       1.85400005E-02  0.351610005    
 C5  0.390689999      0.958920002      0.355190009    
 H2  0.394970000      0.924759984      0.362580001    
 H2  0.363909990      0.972819984      0.362819999    
 H2  0.368979990      0.940550029      0.342330009    
 C4  0.555899978       8.03600028E-02  0.329100013    
 C5  0.597220004       8.73100013E-02  0.310020000    
 H2  0.581920028      0.104460001      0.299070001    
 H2  0.644630015      0.118299998      0.312559992    
 H2  0.590789974       4.35199998E-02  0.306369990    
 C3  0.487450004       7.28999972E-02  0.365000010    
 H1  0.463569999       7.07900003E-02  0.376729995    
 C3  0.582530022      0.133970007      0.344060004    
 H1  0.624159992      0.172940001      0.341549993    
 C2  0.549369991      0.129730001      0.361429989    
 C2  0.437669992      0.583239973      0.293049991    
 C3  0.402680010      0.543820024      0.308569998    
 H1  0.358080000      0.534099996      0.310589999    
 C3  0.503359973      0.598320007      0.290730000    
 H1  0.529089987      0.626640022      0.280140013    
 C4  0.429969996      0.516990006      0.321850002    
 C5  0.390100002      0.472149998      0.339700013    
 H2  0.394650012      0.500310004      0.351150006    
 H2  0.342860013      0.445270002      0.336070001    
 H2  0.407499999      0.442570001      0.343109995    
 C4  0.532949984      0.572700024      0.303700000    
 C5  0.608560026      0.591589987      0.301160008    
 H2  0.610920012      0.557129979      0.293390006    
 H2  0.633419991      0.634720027      0.294400007    
 H2  0.628239989      0.594669998      0.314289987    
 C6  0.496589988      0.532450020      0.319720000    
 C6  0.528320014      0.505680025      0.333939999    
 C4  0.559239984      0.540690005      0.351610005    
 C5  0.568239987      0.609309971      0.355190009    
 H2  0.529799998      0.605030000      0.362580001    
 H2  0.608919978      0.636089981      0.362819999    
 H2  0.571579993      0.631020010      0.342330009    
 C4  0.524469972      0.444099993      0.329100013    
 C5  0.490099996      0.402779996      0.310020000    
 H2  0.522549987      0.418080002      0.299070001    
 H2  0.473679990      0.355369985      0.312559992    
 H2  0.452740014      0.409209996      0.306369990    
 C3  0.585460007      0.512549996      0.365000010    
 H1  0.607230008      0.536430001      0.376729995    
 C3  0.551450014      0.417470008      0.344060004    
 H1  0.548789978      0.375840008      0.341549993    
 C2  0.580370009      0.450630009      0.361429989    
 C2  0.116339996      0.206180006      0.120300002    
 C3  0.100000001      0.254920006      0.120980002    
 H1   6.96699992E-02  0.254559994      0.111409999    
 C3  0.159270003      0.206619993      0.134760007    
 H1  0.170589998      0.172409996      0.134749994    
 C3  0.126049995      0.305810004      0.135330006    
 H1  0.114480004      0.339810014      0.135859996    
 C3  0.186539993      0.256570011      0.149489999    
 H1  0.215149999      0.255989999      0.159510002    
 C6  0.169080004      0.306329995      0.150130004    
 C6  0.197180003      0.359499991      0.166109994    
 C3  0.161330000      0.351130009      0.183929995    
 H1  0.122060001      0.309859991      0.186609998    
 C3  0.259380013      0.417930007      0.162340000    
 H1  0.284429997      0.425500005      0.150490001    
 C3  0.187560007      0.403230011      0.198090002    
 H1  0.164179996      0.397350013      0.210219994    
 C3  0.282279998      0.470400006      0.177609995    
 H1  0.323069990      0.510720015      0.175490007    
 C2  0.247030005      0.463070005      0.194769993    
 C2  0.793820024      0.910170019      0.120300002    
 C3  0.745079994      0.845089972      0.120980002    
 H1  0.745440006      0.815119982      0.111409999    
 C3  0.793380022      0.952660024      0.134760007    
 H1  0.827589989      0.998189986      0.134749994    
 C3  0.694190025      0.820249975      0.135330006    
 H1  0.660189986      0.774680018      0.135859996    
 C3  0.743430018      0.929979980      0.149489999    
 H1  0.744009972      0.959169984      0.159510002    
 C6  0.693669975      0.862760007      0.150130004    
 C6  0.644590020      0.839919984      0.167480007    
 C3  0.640510023      0.880219996      0.182610005    
 H1  0.672339976      0.926530004      0.183109999    
 C3  0.594640017      0.771979988      0.165030003    
 H1  0.596080005      0.743330002      0.155180007    
 C3  0.585959971      0.851360023      0.195920005    
 H1  0.582470000      0.878539979      0.205899999    
 C3  0.540449977      0.745400012      0.179810002    
 H1  0.506680012      0.699869990      0.178900003    
 C2  0.536930025      0.783969998      0.194769993    
 C2   7.87300020E-02  0.893980026      0.127450004    
 C3  0.105860002      0.922699988      0.145170003    
 H1  0.105959997      0.962339997      0.148880005    
 C3   7.74099976E-02  0.835039973      0.122589998    
 H1   5.77699989E-02  0.813560009      0.110399999    
 C3  0.133579999      0.895879984      0.158289999    
 H1  0.152370006      0.915809989      0.170719996    
 C3  0.104479998      0.806180000      0.135299996    
 H1  0.102550000      0.765339971      0.131990001    
 C6  0.131960005      0.835950017      0.153569996    
 C6  0.160080001      0.804679990      0.167480007    
 C3  0.119779997      0.760299981      0.182610005    
 H1   7.34699965E-02  0.745819986      0.183109999    
 C3  0.228019997      0.822669983      0.165030003    
 H1  0.256669998      0.852750003      0.155180007    
 C3  0.148640007      0.734610021      0.195920005    
 H1  0.121459998      0.703939974      0.205899999    
 C3  0.254599988      0.795059979      0.179810002    
 H1  0.300130010      0.806819975      0.178900003    
 C2  0.216030002      0.752969980      0.194769993    
 C2  0.872839987      0.449680001      0.713039994    
 C3  0.921580017      0.433340013      0.712360024    
 H1  0.921220005      0.403010011      0.721930027    
 C3  0.873279989      0.492610008      0.698580027    
 H1  0.839070022      0.503929973      0.698589981    
 C3  0.972469985      0.459390014      0.698010027    
 H1   1.00646996      0.447820008      0.697480023    
 C3  0.923229992      0.519879997      0.683849990    
 H1  0.922649980      0.548489988      0.673829973    
 C6  0.972989976      0.502420008      0.683210015    
 C6   2.61599999E-02  0.530520022      0.667230010    
 C3   1.77900009E-02  0.494670004      0.649410009    
 H1  -2.34800000E-02  0.455399990      0.646730006    
 C3   8.45900029E-02  0.592719972      0.671000004    
 H1   9.21600014E-02  0.617770016      0.682850003    
 C3   6.98899999E-02  0.520900011      0.635249972    
 H1   6.40100017E-02  0.497520000      0.623120010    
 C3  0.137060001      0.615620017      0.655730009    
 H1  0.177379996      0.656409979      0.657850027    
 C2  0.129730001      0.580370009      0.638570011    
 C2  0.576830029      0.127159998      0.713039994    
 C3  0.511749983       7.84199983E-02  0.712360024    
 H1  0.481779993       7.87800029E-02  0.721930027    
 C3  0.619319975      0.126719996      0.698580027    
 H1  0.664849997      0.160929993      0.698589981    
 C3  0.486909986       2.75299996E-02  0.698010027    
 H1  0.441339999      -6.46999991E-03  0.697480023    
 C3  0.596639991       7.67700002E-02  0.683849990    
 H1  0.625829995       7.73499981E-02  0.673829973    
 C6  0.529420018       2.70099994E-02  0.683210015    
 C6  0.504350007      0.973839998      0.667230010    
 C4  0.476870000      0.982209980      0.649410009    
 C5  0.480060011       4.79799993E-02  0.645139992    
 H2  0.439399987       4.63199988E-02  0.650059998    
 H2  0.483889997       5.60100004E-02  0.630859971    
 H2  0.519209981       8.41900036E-02  0.651870012    
 C4  0.508120000      0.915409982      0.671000004    
 C5  0.536849976      0.902960002      0.690479994    
 H2  0.585340023      0.921920002      0.689080000    
 H2  0.515730023      0.854889989      0.692950010    
 H2  0.527939975      0.924560010      0.701619983    
 C3  0.451000005      0.930109978      0.635249972    
 H1  0.433499992      0.935989976      0.623120010    
 C3  0.478549987      0.862940013      0.655730009    
 H1  0.479020000      0.822619975      0.657850027    
 C2  0.450630009      0.870270014      0.638570011    
 C2  0.550320029      0.423170000      0.713039994    
 C3  0.566659987      0.488249987      0.712360024    
 H1  0.596989989      0.518220007      0.721930027    
 C3  0.507390022      0.380679995      0.698580027    
 H1  0.496069998      0.335150003      0.698589981    
 C4  0.540610015      0.513090014      0.698010027    
 C5  0.559549987      0.587660015      0.697139978    
 H2  0.600459993      0.612930000      0.689329982    
 H2  0.566959977      0.605780005      0.710650027    
 H2  0.523199975      0.591310024      0.690949976    
 C4  0.480120003      0.403360009      0.683849990    
 C5  0.432339996      0.354609996      0.667119980    
 H2  0.385780007      0.336420000      0.671119988    
 H2  0.441700011      0.318159997      0.665099978    
 H2  0.440200001      0.379480004      0.654680014    
 C6  0.497579992      0.470580012      0.683210015    
 C6  0.469480008      0.495649993      0.667230010    
 C4  0.505330026      0.523130000      0.649410009    
 C5  0.567910016      0.519940019      0.645139992    
 H2  0.606909990      0.560599983      0.650059998    
 H2  0.572109997      0.516110003      0.630859971    
 H2  0.564970016      0.480789989      0.651870012    
 C4  0.407279998      0.491880000      0.671000004    
 C5  0.366100013      0.463149995      0.690479994    
 H2  0.336569995      0.414660007      0.689080000    
 H2  0.339150012      0.484270006      0.692950010    
 H2  0.396609992      0.472059995      0.701619983    
 C3  0.479099989      0.549000025      0.635249972    
 H1  0.502479970      0.566500008      0.623120010    
 C3  0.384380013      0.521449983      0.655730009    
 H1  0.343589991      0.520980000      0.657850027    
 C2  0.419629991      0.549369991      0.638570011    
 C2  0.560639977      0.148580000      0.205890000    
 C3  0.589359999      0.150169998      0.188170001    
 H1  0.629000008      0.189710006      0.184459999    
 C3  0.501699984       9.09600034E-02  0.210749999    
 H1  0.480219990       8.91200006E-02  0.222939998    
 C4  0.562539995       9.56299976E-02  0.175050005    
 C5  0.595149994       9.74899977E-02  0.154709995    
 H2  0.578899980      0.116480000      0.144620001    
 H2  0.643779993      0.125190005      0.155839995    
 H2  0.583490014       5.21200001E-02  0.150859997    
 C4  0.472840011       3.50299999E-02  0.198039994    
 C5  0.404630005      0.970049977      0.203559995    
 H2  0.413819999      0.937659979      0.210040003    
 H2  0.378780007      0.981939971      0.212490007    
 H2  0.378899992      0.950269997      0.191400006    
 C6  0.502610028       3.73199992E-02  0.179769993    
 C6  0.471340001      0.977930009      0.165859997    
 C4  0.426959991      0.973850012      0.150729999    
 C5  0.403890014       2.45800000E-02  0.149930000    
 H2  0.433860004       6.17699996E-02  0.141320005    
 H2  0.358599991       3.53999995E-03  0.144659996    
 H2  0.404619992       4.13599983E-02  0.163409993    
 C4  0.489329994      0.927980006      0.168310001    
 C5  0.538770020      0.930339992      0.184489995    
 H2  0.514100015      0.909709990      0.196789995    
 H2  0.560599983      0.905889988      0.179810002    
 H2  0.572449982      0.976849973      0.187140003    
 C3  0.401270002      0.919300020      0.137419999    
 H1  0.370599985      0.915809989      0.127440006    
 C3  0.461719990      0.873790026      0.153530002    
 H1  0.473479986      0.840020001      0.154440001    
 C2  0.419629991      0.870270014      0.138569996    
 C2  0.851419985      0.412070006      0.205890000    
 C3  0.849829972      0.439200014      0.188170001    
 H1  0.810289979      0.439300001      0.184459999    
 C3  0.909039974      0.410750002      0.210749999    
 H1  0.910880029      0.391110003      0.222939998    
 C4  0.904370010      0.466919988      0.175050005    
 C5  0.902509987      0.497669995      0.154709995    
 H2  0.883520007      0.462430000      0.144620001    
 H2  0.874809980      0.518599987      0.155839995    
 H2  0.947880030      0.531379998      0.150859997    
 C4  0.964969993      0.437819988      0.198039994    
 C5   2.99500003E-02  0.434590012      0.203559995    
 H2   6.23399988E-02  0.476170003      0.210040003    
 H2   1.80600006E-02  0.396849990      0.212490007    
 H2   4.97299992E-02  0.428640008      0.191400006    
 C6  0.962679982      0.465299994      0.179769993    
 C6   2.20699999E-02  0.493420005      0.165859997    
 C4   2.61499994E-02  0.453119993      0.150729999    
 C5  0.975419998      0.379319996      0.149930000    
 H2  0.938229978      0.372099996      0.141320005    
 H2  0.996460021      0.355069995      0.144659996    
 H2  0.958639979      0.363270015      0.163409993    
 C4   7.20200017E-02  0.561360002      0.168310001    
 C5   6.96600005E-02  0.608439982      0.184489995    
 H2   9.02900025E-02  0.604399979      0.196789995    
 H2   9.41099972E-02  0.654720008      0.179810002    
 H2   2.31500007E-02  0.595610023      0.187140003    
 C3   8.07000026E-02  0.481979996      0.137419999    
 H1   8.41900036E-02  0.454800010      0.127440006    
 C3  0.126210004      0.587939978      0.153530002    
 H1  0.159979999      0.633469999      0.154440001    
 C2  0.129730001      0.549369991      0.138569996    
 C2  0.587930024      0.439359993      0.205890000    
 C3  0.560800016      0.410640001      0.188170001    
 H1  0.560699999      0.370999992      0.184459999    
 C3  0.589250028      0.498299986      0.210749999    
 H1  0.608889997      0.519779980      0.222939998    
 C4  0.533079982      0.437460005      0.175050005    
 C5  0.502330005      0.404850006      0.154709995    
 H2  0.537570000      0.421099991      0.144620001    
 H2  0.481400013      0.356220007      0.155839995    
 H2  0.468620002      0.416509986      0.150859997    
 C4  0.562179983      0.527159989      0.198039994    
 C5  0.565410018      0.595369995      0.203559995    
 H2  0.523829997      0.586179972      0.210040003    
 H2  0.603150010      0.621219993      0.212490007    
 H2  0.571359992      0.621100008      0.191400006    
 C6  0.534699976      0.497390002      0.179769993    
 C6  0.506579995      0.528659999      0.165859997    
 C4  0.546880007      0.573040009      0.150729999    
 C5  0.620679975      0.596109986      0.149930000    
 H2  0.627900004      0.566139996      0.141320005    
 H2  0.644930005      0.641399980      0.144659996    
 H2  0.636730015      0.595380008      0.163409993    
 C4  0.438639998      0.510670006      0.168310001    
 C5  0.391559988      0.461230010      0.184489995    
 H2  0.395599991      0.485900015      0.196789995    
 H2  0.345279992      0.439399987      0.179810002    
 H2  0.404390007      0.427549988      0.187140003    
 C3  0.518019974      0.598730028      0.137419999    
 H1  0.545199990      0.629400015      0.127440006    
 C3  0.412059993      0.538280010      0.153530002    
 H1  0.366530001      0.526520014      0.154440001    
 C2  0.450630009      0.580370009      0.138569996    
 C2  0.801230013      0.892470002      0.622669995    
 C3  0.771629989      0.926469982      0.629570007    
 H1  0.786930025      0.970470011      0.624870002    
 C3  0.779330015      0.828970015      0.630169988    
 H1  0.800029993      0.804669976      0.625769973    
 C3  0.719330013      0.899169981      0.643469989    
 H1  0.698740005      0.922999978      0.648360014    
 C3  0.727129996      0.799570024      0.644169986    
 H1  0.713060021      0.756449997      0.649439991    
 C6  0.697229981      0.835169971      0.651269972    
 C6  0.641929984      0.804470003      0.666570008    
 C3  0.656729996      0.816269994      0.687070012    
 H1  0.701849997      0.839110017      0.691399992    
 C3  0.575429976      0.765169978      0.659569979    
 H1  0.563629985      0.756770015      0.645940006    
 C3  0.603529990      0.789470017      0.700869977    
 H1  0.613330007      0.796370029      0.714670002    
 C3  0.522930026      0.740570009      0.674870014    
 H1  0.477730006      0.715070009      0.670769989    
 C2  0.536930025      0.752969980      0.694769979    
 C2   9.12299976E-02  0.198770002      0.622669995    
 C3  0.154829994      0.228369996      0.629570007    
 H1  0.183530003      0.213070005      0.624870002    
 C3   4.96300012E-02  0.220670000      0.630169988    
 H1   4.62999986E-03  0.199970007      0.625769973    
 C3  0.179830000      0.280669987      0.643469989    
 H1  0.224260002      0.301259995      0.648360014    
 C3   7.24299997E-02  0.272870004      0.644169986    
 H1   4.33899984E-02  0.286940008      0.649439991    
 C6  0.137930006      0.302769989      0.651269972    
 C6  0.162259996      0.357389987      0.666800022    
 C3  0.147300005      0.343540013      0.687219977    
 H1  0.117169999      0.299250007      0.691439986    
 C3  0.201989993      0.423629999      0.659630001    
 H1  0.213550001      0.434700012      0.646080017    
 C3  0.174150005      0.397179991      0.700869977    
 H1  0.163330004      0.388179988      0.714569986    
 C3  0.229320005      0.476350009      0.674870014    
 H1  0.257090002      0.521210015      0.670719981    
 C2  0.216030002      0.463070005      0.694769979    
 C2  0.105279997      0.910070002      0.623839974    
 C3   6.78400025E-02  0.851549983      0.633599997    
 H1   2.12200005E-02  0.826860011      0.631129980    
 C3  0.172979996      0.946219981      0.628109992    
 H1  0.199949995      0.987810016      0.621680021    
 C3   9.53700021E-02  0.826160014      0.647289991    
 H1   6.91900030E-02  0.785329998      0.654179990    
 C3  0.202810004      0.922839999      0.641780019    
 H1  0.249009997      0.948329985      0.644829988    
 C6  0.163739994      0.862689972      0.651830018    
 C6  0.195120007      0.837740004      0.666800022    
 C3  0.196229994      0.852699995      0.687219977    
 H1  0.182070002      0.882830024      0.691439986    
 C3  0.221630007      0.798009992      0.659630001    
 H1  0.221139997      0.786450028      0.646080017    
 C3  0.223020002      0.825850010      0.700869977    
 H1  0.224840000      0.836669981      0.714569986    
 C3  0.247020006      0.770680010      0.674870014    
 H1  0.264109999      0.742910028      0.670719981    
 C2  0.247030005      0.783969998      0.694769979    
