data_cif
_audit_creation_method 'generated by iGOR'
_symmetry_space_group_name_H-M     'P 1'
_symmetry_Int_Tables_number        1
_symmetry_cell_setting             triclinic
_cell_length_a                     22.6522999
_cell_length_b                     22.6522999
_cell_length_c                     65.9502029
_cell_angle_alpha                  90.0000000
_cell_angle_beta                   90.0000000
_cell_angle_gamma                 120.0000000
loop_
_atom_site_label
_atom_site_fract_x
_atom_site_fract_y
_atom_site_fract_z
 O1   0.00000000      -0.00000000      0.625000000    
 Zn   0.00000000      -0.00000000      0.595889986    
 Zn  0.948480010       1.04288006      0.633920014    
 Zn   9.43899974E-02   5.15200011E-02  0.633920014    
 Zn  -4.28799987E-02  0.905610025      0.633920014    
 O2  0.938600004       2.61000004E-02  0.585870028    
 O2   8.74999985E-02   6.14000000E-02  0.585870028    
 O2  -2.61000004E-02  0.912500024      0.585870028    
 O2  0.913049996       7.16100037E-02  0.611810029    
 O2   4.61999979E-03  0.120219998      0.651099980    
 O2  0.874130011      0.980740011      0.650709987    
 O2  0.158559993       8.69499967E-02  0.611810029    
 O2  0.106600001      0.125870004      0.650709987    
 O2  0.115589999      0.995379984      0.651099980    
 O2  -7.16100037E-02  0.841440022      0.611810029    
 O2  0.879779994      0.884410024      0.651099980    
 O2   1.92600004E-02  0.893400013      0.650709987    
 C1  0.913900018       6.01999983E-02  0.593580008    
 C1  0.146300003       8.60999972E-02  0.593580008    
 C1  -6.01999983E-02  0.853699982      0.593580008    
 C1   6.66299984E-02  0.143969998      0.656729996    
 C1  0.856029987      0.922670007      0.656729996    
 C1   7.73300007E-02  0.933369994      0.656729996    
 O1  -0.00000000       0.00000000      0.875000000    
 Zn  -0.00000000       0.00000000      0.904110014    
 Zn   1.04288006      0.948480010      0.866079986    
 Zn   5.15200011E-02   9.43899974E-02  0.866079986    
 Zn  0.905610025      -4.28799987E-02  0.866079986    
 O2   2.61000004E-02  0.938600004      0.914129972    
 O2   6.14000000E-02   8.74999985E-02  0.914129972    
 O2  0.912500024      -2.61000004E-02  0.914129972    
 O2   7.16100037E-02  0.913049996      0.888189971    
 O2  0.120219998       4.61999979E-03  0.848900020    
 O2  0.980740011      0.874130011      0.849290013    
 O2   8.69499967E-02  0.158559993      0.888189971    
 O2  0.125870004      0.106600001      0.849290013    
 O2  0.995379984      0.115589999      0.848900020    
 O2  0.841440022      -7.16100037E-02  0.888189971    
 O2  0.884410024      0.879779994      0.848900020    
 O2  0.893400013       1.92600004E-02  0.849290013    
 C1   6.01999983E-02  0.913900018      0.906419992    
 C1   8.60999972E-02  0.146300003      0.906419992    
 C1  0.853699982      -6.01999983E-02  0.906419992    
 C1  0.143969998       6.66299984E-02  0.843270004    
 C1  0.922670007      0.856029987      0.843270004    
 C1  0.933369994       7.73300007E-02  0.843270004    
 O1   0.00000000       0.00000000      0.375000000    
 Zn   0.00000000       0.00000000      0.404110014    
 Zn   5.15200011E-02  -4.28799987E-02  0.366079986    
 Zn  0.905610025      0.948480010      0.366079986    
 Zn   1.04288006       9.43899974E-02  0.366079986    
 O2   6.14000000E-02  -2.61000004E-02  0.414130002    
 O2  0.912500024      0.938600004      0.414130002    
 O2   2.61000004E-02   8.74999985E-02  0.414130002    
 O2   8.69499967E-02  -7.16100037E-02  0.388190001    
 O2  0.995379984      0.879779994      0.348899990    
 O2  0.125870004       1.92600004E-02  0.349290013    
 O2  0.841440022      0.913049996      0.388190001    
 O2  0.893400013      0.874130011      0.349290013    
 O2  0.884410024       4.61999979E-03  0.348899990    
 O2   7.16100037E-02  0.158559993      0.388190001    
 O2  0.120219998      0.115589999      0.348899990    
 O2  0.980740011      0.106600001      0.349290013    
 C1   8.60999972E-02  -6.01999983E-02  0.406419992    
 C1  0.853699982      0.913900018      0.406419992    
 C1   6.01999983E-02  0.146300003      0.406419992    
 C1  0.933369994      0.856029987      0.343270004    
 C1  0.143969998       7.73300007E-02  0.343270004    
 C1  0.922670007       6.66299984E-02  0.343270004    
 O1   0.00000000       0.00000000      0.125000000    
 Zn   0.00000000       0.00000000       9.58900005E-02
 Zn  -4.28799987E-02   5.15200011E-02  0.133919999    
 Zn  0.948480010      0.905610025      0.133919999    
 Zn   9.43899974E-02   1.04288006      0.133919999    
 O2  -2.61000004E-02   6.14000000E-02   8.58699977E-02
 O2  0.938600004      0.912500024       8.58699977E-02
 O2   8.74999985E-02   2.61000004E-02   8.58699977E-02
 O2  -7.16100037E-02   8.69499967E-02  0.111809999    
 O2  0.879779994      0.995379984      0.151099995    
 O2   1.92600004E-02  0.125870004      0.150710002    
 O2  0.913049996      0.841440022      0.111809999    
 O2  0.874130011      0.893400013      0.150710002    
 O2   4.61999979E-03  0.884410024      0.151099995    
 O2  0.158559993       7.16100037E-02  0.111809999    
 O2  0.115589999      0.120219998      0.151099995    
 O2  0.106600001      0.980740011      0.150710002    
 C1  -6.01999983E-02   8.60999972E-02   9.35800001E-02
 C1  0.913900018      0.853699982       9.35800001E-02
 C1  0.146300003       6.01999983E-02   9.35800001E-02
 C1  0.856029987      0.933369994      0.156729996    
 C1   7.73300007E-02  0.143969998      0.156729996    
 C1   6.66299984E-02  0.922670007      0.156729996    
 O1  0.666670024      0.333330005      0.958329976    
 Zn  0.666670024      0.333330005      0.929220021    
 Zn  0.615149975      0.376210004      0.967249990    
 Zn  0.761059999      0.384849995      0.967249990    
 Zn -0.376210004      0.238940001      0.967249990    
 O2  0.605270028      0.359429985      0.919200003    
 O2  0.754170001      0.394730002      0.919200003    
 O2  0.640569985      0.245829999      0.919200003    
 O2  0.579720020      0.404940009      0.945140004    
 O2  0.671289980      0.453550011      0.984430015    
 O2  0.540799975      0.314069986      0.984040022    
 O2  0.825230002      0.420280010      0.945140004    
 O2  0.773270011      0.459199995      0.984040022    
 O2 -0.217739999      0.328709990      0.984430015    
 O2  0.595059991      0.174769998      0.945140004    
 O2  0.546450019      0.217739999      0.984430015    
 O2 -0.314069986      0.226730004      0.984040022    
 C1  0.580569983      0.393530011      0.926909983    
 C1  0.812969983      0.419429988      0.926909983    
 C1  0.606469989      0.187030002      0.926909983    
 C1  0.733299971      0.477299988      0.990059972    
 C1  0.522700012      0.256000012      0.990059972    
 C1 -0.256000012      0.266700000      0.990059972    
 O1  0.666670024      0.333330005      0.208330005    
 Zn  0.666670024      0.333330005      0.237440005    
 Zn  0.709540009      0.281819999      0.199420005    
 Zn  0.718180001      0.427729994      0.199420005    
 Zn  0.572269976      0.290459991      0.199420005    
 O2  0.692770004      0.271930009      0.247459993    
 O2  0.728070021      0.420830011      0.247459993    
 O2  0.579169989      0.307229996      0.247459993    
 O2  0.738279998      0.246380001      0.221520007    
 O2  0.786880016      0.337960005      0.182239994    
 O2  0.647400022      0.207470000      0.182630002    
 O2  0.753620028      0.491890013      0.221520007    
 O2  0.792530000      0.439940006      0.182630002    
 O2  0.662039995      0.448929995      0.182239994    
 O2  0.508109987      0.261720002      0.221520007    
 O2  0.551069975      0.213119999      0.182239994    
 O2  0.560060024      0.352600008      0.182630002    
 C1  0.726870000      0.247229993      0.239749998    
 C1  0.752770007      0.479629993      0.239749998    
 C1  0.520370007      0.273130000      0.239749998    
 C1  0.810630023      0.399969995      0.176609993    
 C1  0.589330018      0.189370006      0.176609993    
 C1  0.600030005      0.410670012      0.176609993    
 O1  0.666670024      0.333330005      0.708329976    
 Zn  0.666670024      0.333330005      0.737439990    
 Zn  0.718180001      0.290459991      0.699419975    
 Zn  0.572269976      0.281819999      0.699419975    
 Zn  0.709540009      0.427729994      0.699419975    
 O2  0.728070021      0.307229996      0.747460008    
 O2  0.579169989      0.271930009      0.747460008    
 O2  0.692770004      0.420830011      0.747460008    
 O2  0.753620028      0.261720002      0.721520007    
 O2  0.662039995      0.213119999      0.682240009    
 O2  0.792530000      0.352600008      0.682630002    
 O2  0.508109987      0.246380001      0.721520007    
 O2  0.560060024      0.207470000      0.682630002    
 O2  0.551069975      0.337960005      0.682240009    
 O2  0.738279998      0.491890013      0.721520007    
 O2  0.786880016      0.448929995      0.682240009    
 O2  0.647400022      0.439940006      0.682630002    
 C1  0.752770007      0.273130000      0.739750028    
 C1  0.520370007      0.247229993      0.739750028    
 C1  0.726870000      0.479629993      0.739750028    
 C1  0.600030005      0.189370006      0.676609993    
 C1  0.810630023      0.410670012      0.676609993    
 C1  0.589330018      0.399969995      0.676609993    
 O1  0.666670024      0.333330005      0.458330005    
 Zn  0.666670024      0.333330005      0.429219991    
 Zn -0.376210004      0.384849995      0.467249990    
 Zn  0.615149975      0.238940001      0.467249990    
 Zn  0.761059999      0.376210004      0.467249990    
 O2  0.640569985      0.394730002      0.419200003    
 O2  0.605270028      0.245829999      0.419200003    
 O2  0.754170001      0.359429985      0.419200003    
 O2  0.595059991      0.420280010      0.445140004    
 O2  0.546450019      0.328709990      0.484429985    
 O2 -0.314069986      0.459199995      0.484039992    
 O2  0.579720020      0.174769998      0.445140004    
 O2  0.540799975      0.226730004      0.484039992    
 O2  0.671289980      0.217739999      0.484429985    
 O2  0.825230002      0.404940009      0.445140004    
 O2 -0.217739999      0.453550011      0.484429985    
 O2  0.773270011      0.314069986      0.484039992    
 C1  0.606469989      0.419429988      0.426910013    
 C1  0.580569983      0.187030002      0.426910013    
 C1  0.812969983      0.393530011      0.426910013    
 C1  0.522700012      0.266700000      0.490060002    
 C1 -0.256000012      0.477299988      0.490060002    
 C1  0.733299971      0.256000012      0.490060002    
 O1  0.333330005      0.666670024      0.291669995    
 Zn  0.333330005      0.666670024      0.262560010    
 Zn  0.281819999      0.709540009      0.300579995    
 Zn  0.427729994      0.718180001      0.300579995    
 Zn  0.290459991      0.572269976      0.300579995    
 O2  0.271930009      0.692770004      0.252539992    
 O2  0.420830011      0.728070021      0.252539992    
 O2  0.307229996      0.579169989      0.252539992    
 O2  0.246380001      0.738279998      0.278479993    
 O2  0.337960005      0.786880016      0.317759991    
 O2  0.207470000      0.647400022      0.317369998    
 O2  0.491890013      0.753620028      0.278479993    
 O2  0.439940006      0.792530000      0.317369998    
 O2  0.448929995      0.662039995      0.317759991    
 O2  0.261720002      0.508109987      0.278479993    
 O2  0.213119999      0.551069975      0.317759991    
 O2  0.352600008      0.560060024      0.317369998    
 C1  0.247229993      0.726870000      0.260250002    
 C1  0.479629993      0.752770007      0.260250002    
 C1  0.273130000      0.520370007      0.260250002    
 C1  0.399969995      0.810630023      0.323390007    
 C1  0.189370006      0.589330018      0.323390007    
 C1  0.410670012      0.600030005      0.323390007    
 O1  0.333330005      0.666670024      0.541670024    
 Zn  0.333330005      0.666670024      0.570779979    
 Zn  0.376210004      0.615149975      0.532750010    
 Zn  0.384849995      0.761059999      0.532750010    
 Zn  0.238940001     -0.376210004      0.532750010    
 O2  0.359429985      0.605270028      0.580799997    
 O2  0.394730002      0.754170001      0.580799997    
 O2  0.245829999      0.640569985      0.580799997    
 O2  0.404940009      0.579720020      0.554859996    
 O2  0.453550011      0.671289980      0.515569985    
 O2  0.314069986      0.540799975      0.515959978    
 O2  0.420280010      0.825230002      0.554859996    
 O2  0.459199995      0.773270011      0.515959978    
 O2  0.328709990     -0.217739999      0.515569985    
 O2  0.174769998      0.595059991      0.554859996    
 O2  0.217739999      0.546450019      0.515569985    
 O2  0.226730004     -0.314069986      0.515959978    
 C1  0.393530011      0.580569983      0.573090017    
 C1  0.419429988      0.812969983      0.573090017    
 C1  0.187030002      0.606469989      0.573090017    
 C1  0.477299988      0.733299971      0.509940028    
 C1  0.256000012      0.522700012      0.509940028    
 C1  0.266700000     -0.256000012      0.509940028    
 O1  0.333330005      0.666670024       4.16699983E-02
 Zn  0.333330005      0.666670024       7.07800016E-02
 Zn  0.384849995     -0.376210004       3.27499993E-02
 Zn  0.238940001      0.615149975       3.27499993E-02
 Zn  0.376210004      0.761059999       3.27499993E-02
 O2  0.394730002      0.640569985       8.07999969E-02
 O2  0.245829999      0.605270028       8.07999969E-02
 O2  0.359429985      0.754170001       8.07999969E-02
 O2  0.420280010      0.595059991       5.48599996E-02
 O2  0.328709990      0.546450019       1.55699998E-02
 O2  0.459199995     -0.314069986       1.59600005E-02
 O2  0.174769998      0.579720020       5.48599996E-02
 O2  0.226730004      0.540799975       1.59600005E-02
 O2  0.217739999      0.671289980       1.55699998E-02
 O2  0.404940009      0.825230002       5.48599996E-02
 O2  0.453550011     -0.217739999       1.55699998E-02
 O2  0.314069986      0.773270011       1.59600005E-02
 C1  0.419429988      0.606469989       7.30900019E-02
 C1  0.187030002      0.580569983       7.30900019E-02
 C1  0.393530011      0.812969983       7.30900019E-02
 C1  0.266700000      0.522700012       9.94000025E-03
 C1  0.477299988     -0.256000012       9.94000025E-03
 C1  0.256000012      0.733299971       9.94000025E-03
 O1  0.333330005      0.666670024      0.791670024    
 Zn  0.333330005      0.666670024      0.762560010    
 Zn  0.290459991      0.718180001      0.800580025    
 Zn  0.281819999      0.572269976      0.800580025    
 Zn  0.427729994      0.709540009      0.800580025    
 O2  0.307229996      0.728070021      0.752539992    
 O2  0.271930009      0.579169989      0.752539992    
 O2  0.420830011      0.692770004      0.752539992    
 O2  0.261720002      0.753620028      0.778479993    
 O2  0.213119999      0.662039995      0.817759991    
 O2  0.352600008      0.792530000      0.817369998    
 O2  0.246380001      0.508109987      0.778479993    
 O2  0.207470000      0.560060024      0.817369998    
 O2  0.337960005      0.551069975      0.817759991    
 O2  0.491890013      0.738279998      0.778479993    
 O2  0.448929995      0.786880016      0.817759991    
 O2  0.439940006      0.647400022      0.817369998    
 C1  0.273130000      0.752770007      0.760249972    
 C1  0.247229993      0.520370007      0.760249972    
 C1  0.479629993      0.726870000      0.760249972    
 C1  0.189370006      0.600030005      0.823390007    
 C1  0.410670012      0.810630023      0.823390007    
 C1  0.399969995      0.589330018      0.823390007    
 C2 -0.195170000      0.543720007      0.502950013    
 C3 -0.160119995      0.609830022      0.498609990    
 H1 -0.150309995      0.623059988      0.485110015    
 C3 -0.210429996      0.525460005      0.522689998    
 H1 -0.235789999      0.479490012      0.526030004    
 C3 -0.137899995      0.659479976      0.513320029    
 H1 -0.113519996      0.705760002      0.510290027    
 C3 -0.189380005      0.573520005      0.537959993    
 H1 -0.200890005      0.560739994      0.551429987    
 C6 -0.153679997      0.641569972      0.533349991    
 C6 -0.131799996      0.693509996      0.549589992    
 C3 -0.171959996      0.721350014      0.554780006    
 H1 -0.215240002      0.703779995      0.549199998    
 C3  -6.95599988E-02  0.713980019      0.558969975    
 H1  -4.10399996E-02  0.696839988      0.555719972    
 C3 -0.148509994      0.772149980      0.569379985    
 H1 -0.175860003      0.790269971      0.573149979    
 C3  -4.79299985E-02  0.768090010      0.573580027    
 H1  -6.08999981E-03  0.784039974      0.579940021    
 C2  -8.63000005E-02  0.796400011      0.578450024    
 C2  0.456279993      0.261110008      0.502950013    
 C3  0.390170008      0.230049998      0.498609990    
 H1  0.376940012      0.226630002      0.485110015    
 C3  0.474539995      0.264109999      0.522689998    
 H1  0.520510018      0.284720004      0.526030004    
 C3  0.340519994      0.202620000      0.513320029    
 H1  0.294239998      0.180720001      0.510290027    
 C3  0.426479995      0.237100005      0.537959993    
 H1  0.439260006      0.238360003      0.551429987    
 C6  0.358429998      0.204750001      0.533349991    
 C6  0.311899990      0.173999995      0.551339984    
 C3  0.298240006      0.215930000      0.563329995    
 H1  0.323630005      0.262980014      0.561739981    
 C3  0.271239996      0.103469998      0.551919997    
 H1  0.279320002       7.38300011E-02  0.544229984    
 C3  0.243499994      0.186480001      0.576600015    
 H1  0.233469993      0.214530006      0.584460020    
 C3  0.216450006       7.67100006E-02  0.566429973    
 H1  0.188789994       2.97599994E-02  0.567529976    
 C2  0.203600004      0.117299996      0.578450024    
 C2  0.740649998      0.225170001      0.512099981    
 C3  0.754769981      0.244639993      0.531340003    
 H1  0.744830012      0.277220011      0.536220014    
 C3  0.753970027      0.176369995      0.505379975    
 H1  0.743539989      0.161259994      0.492049992    
 C3  0.783379972      0.218370005      0.544319987    
 H1  0.793099999      0.231849998      0.557799995    
 C3  0.782459974      0.148369998      0.517880023    
 H1  0.790480018      0.114200003      0.513279974    
 C6  0.796410024      0.168390006      0.537729979    
 C6  0.825999975      0.137899995      0.551339984    
 C3  0.784070015       8.23099986E-02  0.563329995    
 H1  0.737020016       6.06399998E-02  0.561739981    
 C3  0.896529973      0.167769998      0.551919997    
 H1  0.926169991      0.205500007      0.544229984    
 C3  0.813520014       5.70200011E-02  0.576600015    
 H1  0.785470009       1.89399999E-02  0.584460020    
 C3  0.923290014      0.139740005      0.566429973    
 H1  0.970239997      0.159030005      0.567529976    
 C2  0.882700026       8.63000005E-02  0.578450024    
 C2  0.536230028     -0.221499994      0.994989991    
 C3  0.576240003     -0.247749999      0.991540015    
 H1  0.569060028     -0.285719991      0.998950005    
 C3  0.546410024     -0.167119995      0.983680010    
 H1  0.518329978     -0.148580000      0.985629976    
 C3  0.627780020     -0.221019998      0.977400005    
 H1  0.655669987     -0.239490002      0.974940002    
 C3  0.597379982     -0.138710007      0.969259977    
 H1  0.603429973     -0.102130003      0.961340010    
 C6  0.638080001     -0.166390002      0.965699971    
 C6  0.692189991     -0.136920005      0.950060010    
 C3  0.679289997     -0.162770003      0.930519998    
 H1  0.635200024     -0.195130005      0.926739991    
 C3  0.755909979      -8.40900019E-02  0.955789983    
 H1  0.766489983      -6.59900010E-02  0.968810022    
 C3  0.731920004     -0.136230007      0.916499972    
 H1  0.723190010     -0.152720004      0.903249979    
 C3  0.808309972      -6.04300015E-02  0.940540016    
 H1  0.851909995      -2.59499997E-02  0.943870008    
 C2  0.796400011      -8.63000005E-02  0.921549976    
 C2  0.242269993      0.463770002      0.994989991    
 C3  0.176009998      0.423759997      0.991540015    
 H1  0.145219997      0.430940002      0.998950005    
 C3  0.286469996      0.453590006      0.983680010    
 H1  0.333090007      0.481669992      0.985629976    
 C3  0.151199996      0.372220010      0.977400005    
 H1  0.104840003      0.344330013      0.974940002    
 C3  0.263909996      0.402619988      0.969259977    
 H1  0.294440001      0.396569997      0.961340010    
 C6  0.195529997      0.361919999      0.965699971    
 C6  0.170800000      0.308600008      0.949800014    
 C3  0.173800007      0.323399991      0.929329991    
 H1  0.196079999      0.368519992      0.925000012    
 C3  0.143600002      0.242100000      0.956759989    
 H1  0.140200004      0.230309993      0.970390022    
 C3  0.147400007      0.270200014      0.915499985    
 H1  0.150299996      0.280000001      0.901690006    
 C3  0.115699999      0.189600006      0.941529989    
 H1   9.60000008E-02  0.144400001      0.945590019    
 C2  0.117299996      0.203600004      0.921549976    
 C2  0.225799993      0.757900000      0.993650019    
 C3  0.259799987      0.821500003      0.986760020    
 H1  0.303799987      0.850199997      0.991490006    
 C3  0.162300006      0.716300011      0.986199975    
 H1  0.137999997      0.671299994      0.990589976    
 C3  0.232500002      0.846499979      0.972869992    
 H1  0.256350011      0.890950024      0.967999995    
 C3  0.132900000      0.739099979      0.972190022    
 H1   8.98099989E-02  0.710080028      0.966899991    
 C6  0.168500006      0.804600000      0.965059996    
 C6  0.137799993      0.829200029      0.949800014    
 C3  0.149599999      0.826200008      0.929329991    
 H1  0.172440007      0.803919971      0.925000012    
 C3   9.84999985E-02  0.856400013      0.956759989    
 H1   9.01200026E-02  0.859799981      0.970390022    
 C3  0.122800000      0.852599978      0.915499985    
 H1  0.129700005      0.849699974      0.901690006    
 C3   7.38999993E-02  0.884299994      0.941529989    
 H1   4.83999997E-02  0.903999984      0.945590019    
 C2   8.63000005E-02  0.882700026      0.921549976    
 C2  0.211209998      0.458059996      0.496760011    
 C3  0.215639994      0.401939988      0.498430014    
 H1  0.236629993      0.396550000      0.509840012    
 C3  0.181899995      0.465779990      0.479770005    
 H1  0.179179996      0.505129993      0.478150010    
 C4  0.190530002      0.351579994      0.483909994    
 C5  0.195859998      0.287479997      0.485769987    
 H2  0.238920003      0.296110004      0.480419993    
 H2  0.192580000      0.274720013      0.499769986    
 H2  0.159569994      0.251170009      0.478280008    
 C4  0.156159997      0.416669995      0.464760005    
 C5  0.124320000      0.426779985      0.445120007    
 H2   7.58399963E-02  0.405389994      0.446700007    
 H2  0.142979994      0.474570006      0.442629993    
 H2  0.134489998      0.406470001      0.433910012    
 C6  0.161390007      0.359200001      0.466540009    
 C6  0.134880006      0.306739986      0.450379997    
 C4  0.177550003      0.308259994      0.435110003    
 C5  0.247749999      0.367029995      0.433409989    
 H2  0.278519988      0.357580006      0.440840006    
 H2  0.261059999      0.374529988      0.419450015    
 H2  0.249009997      0.407040000      0.438870013    
 C4   6.68699965E-02  0.255820006      0.451400012    
 C5   1.77200008E-02  0.251010001      0.468100011    
 H2  0.996850014      0.277399987      0.464280009    
 H2  0.983070016      0.204300001      0.469940007    
 H2   4.24299985E-02  0.268640012      0.480500013    
 C3  0.151979998      0.256610006      0.420769989    
 H1  0.180219993      0.258020014      0.410279989    
 C3   4.45800014E-02  0.203130007      0.436280012    
 H1  0.999779999      0.167549998      0.436639994    
 C2   8.63000005E-02  0.203600004      0.421550006    
 C2  0.541939974      0.753149986      0.496760011    
 C3  0.598060012      0.813700020      0.498430014    
 H1  0.603450000      0.840080023      0.509840012    
 C3  0.534219980      0.716120005      0.479770005    
 H1  0.494870007      0.674049973      0.478150010    
 C4  0.648419976      0.838949978      0.483909994    
 C5  0.712520003      0.908379972      0.485769987    
 H2  0.703890026      0.942809999      0.480419993    
 H2  0.725279987      0.917859972      0.499769986    
 H2  0.748830020      0.908399999      0.478280008    
 C4  0.583329976      0.739489973      0.464760005    
 C5  0.573220015      0.697539985      0.445120007    
 H2  0.594609976      0.670449972      0.446700007    
 H2  0.525430024      0.668410003      0.442629993    
 H2  0.593529999      0.728020012      0.433910012    
 C6  0.640799999      0.802190006      0.466540009    
 C6  0.693260014      0.828140020      0.450379997    
 C4  0.691739976      0.869289994      0.435110003    
 C5  0.632969975      0.880720019      0.433409989    
 H2  0.642419994      0.920939982      0.440840006    
 H2  0.625469983      0.886529982      0.419450015    
 H2  0.592960000      0.841970026      0.438870013    
 C4  0.744180024      0.811049998      0.451400012    
 C5  0.748989999      0.766709983      0.468100011    
 H2  0.722599983      0.719449997      0.464280009    
 H2  0.795700014      0.778770030      0.469940007    
 H2  0.731360018      0.773790002      0.480500013    
 C3  0.743390024      0.895370007      0.420769989    
 H1  0.741980016      0.922200024      0.410279989    
 C3  0.796869993      0.841449976      0.436280012    
 H1  0.832449973      0.832229972      0.436639994    
 C2  0.796400011      0.882700026      0.421550006    
 C2  0.246849999     -0.211209998      0.496760011    
 C3  0.186299995     -0.215639994      0.498430014    
 H1  0.159920007     -0.236629993      0.509840012    
 C3  0.283879995     -0.181899995      0.479770005    
 H1  0.325949997     -0.179179996      0.478150010    
 C4  0.161050007     -0.190530002      0.483909994    
 C5   9.16199982E-02 -0.195859998      0.485769987    
 H2   5.71900010E-02 -0.238920003      0.480419993    
 H2   8.21399987E-02 -0.192580000      0.499769986    
 H2   9.16000009E-02 -0.159569994      0.478280008    
 C4  0.260509998     -0.156159997      0.464760005    
 C5  0.302460015     -0.124320000      0.445120007    
 H2  0.329549998      -7.58399963E-02  0.446700007    
 H2  0.331589997     -0.142979994      0.442629993    
 H2  0.271979988     -0.134489998      0.433910012    
 C6  0.197809994     -0.161390007      0.466540009    
 C6  0.171859995     -0.134880006      0.450379997    
 C4  0.130710006     -0.177550003      0.435110003    
 C5  0.119280003     -0.247749999      0.433409989    
 H2   7.90600032E-02 -0.278519988      0.440840006    
 H2  0.113470003     -0.261059999      0.419450015    
 H2  0.158030003     -0.249009997      0.438870013    
 C4  0.188950002      -6.68699965E-02  0.451400012    
 C5  0.233290002      -1.77200008E-02  0.468100011    
 H2  0.280550003       3.15000000E-03  0.464280009    
 H2  0.221230000       1.69300009E-02  0.469940007    
 H2  0.226209998      -4.24299985E-02  0.480500013    
 C3  0.104630001     -0.151979998      0.420769989    
 H1   7.77999982E-02 -0.180219993      0.410279989    
 C3  0.158549994      -4.45800014E-02  0.436280012    
 H1  0.167769998       2.20000002E-04  0.436639994    
 C2  0.117299996      -8.63000005E-02  0.421550006    
 C2  0.460550010      0.216639996       4.00000019E-03
 C3  0.411839992      0.232999995       4.63999994E-03
 H1  0.412230015      0.263280004      0.995039999    
 C3  0.460090011      0.173690006       1.84300002E-02
 H1  0.494289994      0.162359998       1.84400007E-02
 C4  0.360940009      0.207010001       1.89900007E-02
 C5  0.305339992      0.225940004       1.97899994E-02
 H2  0.320989996      0.266909987       2.76100002E-02
 H2  0.294649988      0.233349994       6.28999993E-03
 H2  0.265329987      0.189649999       2.60000005E-02
 C4  0.410129994      0.146500006       3.31699997E-02
 C5  0.411040008       9.88000035E-02   4.99499999E-02
 H2  0.382669985       5.21899983E-02   4.59299982E-02
 H2  0.456860006      0.108099997       5.19500002E-02
 H2  0.394039989      0.106679998       6.23500012E-02
 C6  0.360379994      0.164020002       3.38199995E-02
 C6  0.307200015      0.135949999       4.97500002E-02
 C4  0.315580010      0.171839997       6.75299987E-02
 C5  0.381359994      0.234410003       7.18000010E-02
 H2  0.379720002      0.273449987       6.69000000E-02
 H2  0.389369994      0.238700002       8.61100033E-02
 H2  0.417560011      0.231480002       6.51099980E-02
 C4  0.248750001       7.38100037E-02   4.60299999E-02
 C5  0.236310005       3.25100012E-02   2.65299994E-02
 H2  0.255239993       2.98000011E-03   2.79500000E-02
 H2  0.188240007       5.59000019E-03   2.40700003E-02
 H2  0.257919997       6.30000010E-02   1.53900003E-02
 C3  0.263460010      0.145710006       8.17200020E-02
 H1  0.269340008      0.169149995       9.38500017E-02
 C3  0.196290001       5.09000011E-02   6.12300001E-02
 H1  0.155949995       1.01600001E-02   5.91499992E-02
 C2  0.203600004       8.63000005E-02   7.84500018E-02
 C2  0.756089985      0.539449990       4.00000019E-03
 C3  0.821160018      0.588159978       4.63999994E-03
 H1  0.851050019      0.587769985      0.995039999    
 C3  0.713599980      0.539910018       1.84300002E-02
 H1  0.668070018      0.505710006       1.84400007E-02
 C4  0.846069992      0.639060020       1.89900007E-02
 C5  0.920599997      0.694660008       1.97899994E-02
 H2  0.945919991      0.679009974       2.76100002E-02
 H2  0.938700020      0.705349982       6.28999993E-03
 H2  0.924319983      0.734669983       2.60000005E-02
 C4  0.736370027      0.589869976       3.31699997E-02
 C5  0.687759995      0.588959992       4.99499999E-02
 H2  0.669520020      0.617330015       4.59299982E-02
 H2  0.651239991      0.543139994       5.19500002E-02
 H2  0.712639987      0.605960011       6.23500012E-02
 C6  0.803640008      0.639620006       3.38199995E-02
 C6  0.827319980      0.693539977       4.95399982E-02
 C3  0.880280018      0.700760007       6.17399998E-02
 H1  0.895470023      0.669560015       6.08000010E-02
 C3  0.798940003      0.735180020       5.17700016E-02
 H1  0.763830006      0.732159972       4.37199995E-02
 C3  0.906629980      0.752020001       7.62000009E-02
 H1  0.941540003      0.756359994       8.46600011E-02
 C3  0.830150008      0.788250029       6.67499974E-02
 H1  0.813419998      0.817900002       6.84700012E-02
 C2  0.882700026      0.796400011       7.84500018E-02
 C2 -0.205559999      0.250889987       2.79999990E-03
 C3 -0.196860000      0.197880000      0.999459982    
 H1 -0.207599998      0.177379996      0.986750007    
 C3 -0.191180006      0.279089987       2.16000006E-02
 H1 -0.197880000      0.315580010       2.43500005E-02
 C3 -0.172700003      0.172079995       1.41000003E-02
 H1 -0.166769996      0.134869993       1.17800003E-02
 C3 -0.167019993      0.254759997       3.67899984E-02
 H1 -0.158280000      0.273589998       4.97299992E-02
 C6 -0.158659995      0.199790001       3.32599990E-02
 C6 -0.133780003      0.172680005       4.95399982E-02
 C3 -0.179519996      0.119719997       6.17399998E-02
 H1 -0.225909993      0.104529999       6.08000010E-02
 C3  -6.37599975E-02  0.201059997       5.17700016E-02
 H1  -3.16700004E-02  0.236169994       4.37199995E-02
 C3 -0.154609993       9.33699980E-02   7.62000009E-02
 H1 -0.185179994       5.84600009E-02   8.46600011E-02
 C3  -4.19000015E-02  0.169850007       6.67499974E-02
 H1   4.48000012E-03  0.186580002       6.84700012E-02
 C2  -8.63000005E-02  0.117299996       7.84500018E-02
 C2  0.461109996      0.876879990      0.836130023    
 C3  0.469810009      0.938589990      0.832790017    
 H1  0.459069997      0.948350012      0.820079982    
 C3  0.475490004      0.863059998      0.854929984    
 H1  0.468789995      0.819869995      0.857680023    
 C4  0.493970007      0.988550007      0.847429991    
 C5  0.503660023       5.90899996E-02  0.843640029    
 H2  0.461600006       5.84399998E-02  0.846260011    
 H2  0.516900003       7.19500035E-02  0.829810023    
 H2  0.538469970       9.14100036E-02  0.852479994    
 C4  0.499650002      0.911549985      0.870119989    
 C5  0.514249980      0.894689977      0.891740024    
 H2  0.561559975      0.908190012      0.892859995    
 H2  0.486809999      0.846629977      0.894150019    
 H2  0.503440022      0.919000030      0.901560009    
 C6  0.508010030      0.974879980      0.866590023    
 C6  0.532890022       2.68699992E-02  0.882870018    
 C4  0.487150013       3.40900011E-02  0.895070016    
 C5  0.413219988      0.984369993      0.893570006    
 H2  0.392639995       5.90000011E-04  0.884010017    
 H2  0.392399997      0.979219973      0.906570017    
 H2  0.406870008      0.941110015      0.889140010    
 C4  0.602909982       6.85100034E-02  0.885100007    
 C5  0.655740023       6.35399967E-02  0.871840000    
 H2  0.666239977       3.08500007E-02  0.877629995    
 H2  0.696460009      0.107260004      0.871159971    
 H2  0.637549996       4.90599982E-02  0.858489990    
 C3  0.512059987       8.53499994E-02  0.909529984    
 H1  0.481489986       8.96899998E-02  0.917990029    
 C3  0.624769986      0.121579997      0.900080025    
 H1  0.671150029      0.151230007      0.901799977    
 C2  0.580370009      0.129730001      0.911780000    
 C2  0.123120002      0.584219992      0.836130023    
 C3   6.14099987E-02  0.531210005      0.832790017    
 H1   5.16499989E-02  0.510710001      0.820079982    
 C3  0.136940002      0.612420022      0.854929984    
 H1  0.180130005      0.648909986      0.857680023    
 C4   1.14500001E-02  0.505410016      0.847429991    
 C5  0.940909982      0.444559991      0.843640029    
 H2  0.941559970      0.403149992      0.846260011    
 H2  0.928049982      0.444940001      0.829810023    
 H2  0.908590019      0.447050005      0.852479994    
 C4   8.84499997E-02  0.588090003      0.870119989    
 C5  0.105310000      0.619549990      0.891740024    
 H2   9.18100029E-02  0.653360009      0.892859995    
 H2  0.153369993      0.640169978      0.894150019    
 H2   8.10000002E-02  0.584429979      0.901560009    
 C6   2.51199994E-02  0.533119977      0.866590023    
 C6  0.973049998      0.506980002      0.882860005    
 C4  0.955810010      0.444849998      0.891619980    
 C5  0.995029986      0.410560012      0.886510015    
 H2  0.973569989      0.379929990      0.875360012    
 H2  0.996169984      0.385399997      0.898010015    
 H2   4.07899991E-02  0.444310009      0.882820010    
 C4  0.941789985      0.543780029      0.888629973    
 C5  0.958019972      0.612079978      0.879249990    
 H2  0.995440006      0.648620009      0.886439979    
 H2  0.918739974      0.617510021      0.880169988    
 H2  0.970420003      0.613120019      0.865310013    
 C3  0.904839993      0.418069988      0.906170011    
 H1  0.893840015      0.376810014      0.912339985    
 C3  0.888239980      0.511849999      0.903439999    
 H1  0.865279973      0.534269989      0.907450020    
 C2  0.870270014      0.450630009      0.911780000    
 C2  0.410919994      0.533420026      0.836030006    
 C3  0.453860015      0.511250019      0.831780016    
 H1  0.466540009      0.511489987      0.818350017    
 C3  0.394320011      0.534240007      0.855769992    
 H1  0.365150005      0.550520003      0.859109998    
 C4  0.480410010      0.488079995      0.846480012    
 C5  0.529789984      0.462969989      0.841639996    
 H2  0.575559974      0.500989974      0.841449976    
 H2  0.518980026      0.441179991      0.828620017    
 H2  0.526170015      0.431019992      0.851800025    
 C4  0.419889987      0.511680007      0.871050000    
 C5  0.402020007      0.514500022      0.893649995    
 H2  0.364100009      0.471350014      0.897539973    
 H2  0.390489995      0.549570024      0.895399988    
 H2  0.440549999      0.524269998      0.901950002    
 C6  0.464509994      0.489360005      0.866550028    
 C6  0.493019998      0.466060013      0.882860005    
 C4  0.555149972      0.510950029      0.891619980    
 C5  0.589439988      0.584460020      0.886510015    
 H2  0.620069981      0.593630016      0.875360012    
 H2  0.614600003      0.610759974      0.898010015    
 H2  0.555689991      0.596469998      0.882820010    
 C4  0.456220001      0.398000002      0.888629973    
 C5  0.387919992      0.345930010      0.879249990    
 H2  0.351379991      0.346810013      0.886439979    
 H2  0.382490009      0.301220000      0.880169988    
 H2  0.386880010      0.357290000      0.865310013    
 C3  0.581929982      0.486759990      0.906170011    
 H1  0.623189986      0.517019987      0.912339985    
 C3  0.488150001      0.376379997      0.903439999    
 H1  0.465730011      0.331000000      0.907450020    
 C2  0.549369991      0.419629991      0.911780000    
 C2  0.182150006      0.108159997      0.321229994    
 C3  0.176799998       8.86899978E-02  0.301990002    
 H1  0.134279996       5.61099984E-02  0.297109991    
 C3  0.244269997      0.156959996      0.327950001    
 H1  0.248950005      0.172069997      0.341280013    
 C3  0.231680006      0.114960000      0.289009988    
 H1  0.227919996      0.101480000      0.275530010    
 C3  0.300760001      0.184959993      0.315450013    
 H1  0.342960000      0.219129995      0.320050001    
 C6  0.294690013      0.164940000      0.295599997    
 C6  0.354770005      0.195429996      0.281989992    
 C3  0.368429989      0.251020014      0.270000011    
 H1  0.343039989      0.272689998      0.271589994    
 C3  0.395429999      0.165560007      0.281410009    
 H1  0.387349993      0.127829999      0.289099991    
 C3  0.423170000      0.276309997      0.256729990    
 H1  0.433200002      0.314390004      0.248870000    
 C3  0.450219989      0.193590000      0.266900003    
 H1  0.477880001      0.174300000      0.265799999    
 C2  0.463070005      0.247030005      0.254880011    
 C2  0.926020026      0.817849994      0.321229994    
 C3  0.911899984      0.823199987      0.301990002    
 H1  0.921840012      0.865719974      0.297109991    
 C3  0.912699997      0.755729973      0.327950001    
 H1  0.923129976      0.751049995      0.341280013    
 C3  0.883289993      0.768320024      0.289009988    
 H1  0.873570025      0.772080004      0.275530010    
 C3  0.884209991      0.699240029      0.315450013    
 H1  0.876190007      0.657040000      0.320050001    
 C6  0.870260000      0.705309987      0.295599997    
 C6  0.838800013      0.644119978      0.282389998    
 C4  0.873809993      0.648249984      0.264750004    
 C5  0.942380011      0.707930028      0.261170000    
 H2  0.938090026      0.742009997      0.253729999    
 H2  0.969259977      0.694060028      0.253509998    
 H2  0.964110017      0.726329982      0.273990005    
 C4  0.777310014      0.586319983      0.287209988    
 C5  0.735920012      0.579370022      0.306309998    
 H2  0.751269996      0.562279999      0.317259997    
 H2  0.688539982      0.548309982      0.303759992    
 H2  0.742280006      0.623130023      0.309949994    
 C3  0.845780015      0.593840003      0.251349986    
 H1  0.869700015      0.595969975      0.239620000    
 C3  0.750680029      0.532710016      0.272309989    
 H1  0.709140003      0.493690014      0.274800003    
 C2  0.783969998      0.536930025      0.254880011    
 C2  0.896229982       8.38399976E-02  0.323210001    
 C3  0.931159973      0.123300001      0.307680011    
 H1  0.975820005      0.133120000      0.305689991    
 C3  0.830600023       6.87199980E-02  0.325590014    
 H1  0.804910004       4.03699987E-02  0.336169988    
 C4  0.903770030      0.150049999      0.294429988    
 C5  0.943620026      0.194959998      0.276600003    
 H2  0.939050019      0.166789994      0.265139997    
 H2  0.990830004      0.221890002      0.280209988    
 H2  0.926110029      0.224460006      0.273180008    
 C4  0.800880015       9.42300037E-02  0.312620014    
 C5  0.725170016       7.51700029E-02  0.315140009    
 H2  0.722840011      0.109650001      0.322959989    
 H2  0.700460017       3.20900008E-02  0.321940005    
 H2  0.705519974       7.20999986E-02  0.302049994    
 C6  0.837100029      0.134460002      0.296570003    
 C6  0.805329978      0.161200002      0.282389998    
 C4  0.774450004      0.126190007      0.264750004    
 C5  0.765559971       5.76200001E-02  0.261170000    
 H2  0.803929985       6.19099997E-02  0.253729999    
 H2  0.724810004       3.07400003E-02  0.253509998    
 H2  0.762229979       3.58900018E-02  0.273990005    
 C4  0.809019983      0.222690001      0.287209988    
 C5  0.843460023      0.264079988      0.306309998    
 H2  0.811020017      0.248730004      0.317259997    
 H2  0.859780014      0.311459988      0.303759992    
 H2  0.880859971      0.257719994      0.309949994    
 C3  0.748070002      0.154220000      0.251349986    
 H1  0.726279974      0.130300000      0.239620000    
 C3  0.782040000      0.249320000      0.272309989    
 H1  0.784560025      0.290859997      0.274800003    
 C2  0.752969980      0.216030002      0.254880011    
 C2  0.896229982      0.812380016      0.823210001    
 C3  0.931159973      0.807850003      0.807680011    
 H1  0.975820005      0.842689991      0.805689991    
 C3  0.830600023      0.761870027      0.825590014    
 H1  0.804910004      0.764530003      0.836170018    
 C3  0.903770030      0.753709972      0.794430017    
 H1  0.928129971      0.750620008      0.783529997    
 C3  0.800880015      0.706640005      0.812619984    
 H1  0.755569994      0.672739983      0.814130008    
 C6  0.837100029      0.702629983      0.796570003    
 C6  0.805329978      0.644119978      0.782389998    
 C3  0.774450004      0.648249984      0.764750004    
 H1  0.768869996      0.685699999      0.762499988    
 C3  0.809019983      0.586319983      0.787209988    
 H1  0.829949975      0.582099974      0.798810005    
 C3  0.748070002      0.593840003      0.751349986    
 H1  0.726279974      0.595969975      0.739619970    
 C3  0.782040000      0.532710016      0.772310019    
 H1  0.784560025      0.493690014      0.774800003    
 C2  0.752969980      0.536930025      0.754880011    
 C2  0.187619999       8.38399976E-02  0.823210001    
 C3  0.192149997      0.123300001      0.807680011    
 H1  0.157309994      0.133120000      0.805689991    
 C3  0.238130003       6.87199980E-02  0.825590014    
 H1  0.235469997       4.03699987E-02  0.836170018    
 C3  0.246289998      0.150049999      0.794430017    
 H1  0.249380007      0.177509993      0.783529997    
 C3  0.293359995       9.42300037E-02  0.812619984    
 H1  0.327259988       8.28199983E-02  0.814130008    
 C6  0.297369987      0.134460002      0.796570003    
 C6  0.360179991      0.158639997      0.783739984    
 C3  0.388020009      0.226640001      0.778550029    
 H1  0.370449990      0.252359986      0.784129977    
 C3  0.380650014      0.116870001      0.774360001    
 H1  0.363510013       7.12099969E-02  0.777610004    
 C3  0.438820004      0.253989995      0.763949990    
 H1  0.456939995      0.299459994      0.760179996    
 C3  0.434760004      0.149350002      0.759750009    
 H1  0.450709999      0.123460002      0.753390014    
 C2  0.463070005      0.216030002      0.754880011    
 C2  0.927779973      0.138160005      0.830380023    
 C3  0.896719992      0.173209995      0.834720016    
 H1  0.893299997      0.183019996      0.848219991    
 C3  0.930779994      0.122900002      0.810639977    
 H1  0.951390028       9.75399986E-02  0.807299972    
 C3  0.869289994      0.195429996      0.820010006    
 H1  0.847389996      0.219809994      0.823040009    
 C3  0.903770030      0.143950000      0.795369983    
 H1  0.905030012      0.132440001      0.781899989    
 C6  0.871420026      0.179649994      0.799979985    
 C6  0.841359973      0.201529995      0.783739984    
 C3  0.773360014      0.161369994      0.778550029    
 H1  0.747640014      0.118089996      0.784129977    
 C3  0.883130014      0.263770014      0.774360001    
 H1  0.928789973      0.292290002      0.777610004    
 C3  0.746010005      0.184819996      0.763949990    
 H1  0.700540006      0.157470003      0.760179996    
 C3  0.850650012      0.285400003      0.759750009    
 H1  0.876540005      0.327239990      0.753390014    
 C2  0.783969998      0.247030005      0.754880011    
 C2  0.127220005      0.549969971      0.337330014    
 C3   7.85100013E-02  0.566330016      0.337969989    
 H1   7.89000019E-02  0.596610010      0.328370005    
 C3  0.126760006      0.507019997      0.351760000    
 H1  0.160960004      0.495689988      0.351770014    
 C4   2.76100002E-02  0.540340006      0.352319986    
 C5  0.972010016      0.559270024      0.353119999    
 H2  0.987659991      0.600239992      0.360940009    
 H2  0.961319983      0.566680014      0.339619994    
 H2  0.931999981      0.522979975      0.359329998    
 C4   7.68000036E-02  0.479829997      0.366499990    
 C5   7.77100027E-02  0.432130009      0.383280009    
 H2   4.93399985E-02  0.385520011      0.379260004    
 H2  0.123530000      0.441430002      0.385280013    
 H2   6.07100017E-02  0.440010011      0.395680010    
 C6   2.70499997E-02  0.497350007      0.367150009    
 C6  0.973869979      0.469280005      0.383080006    
 C4  0.982249975      0.505169988      0.400860012    
 C5   4.80300002E-02  0.567740023      0.405129999    
 H2   4.63900007E-02  0.606779993      0.400229990    
 H2   5.60400002E-02  0.572030008      0.419440001    
 H2   8.42299983E-02  0.564809978      0.398440003    
 C4  0.915419996      0.407139987      0.379359990    
 C5  0.902980030      0.365839988      0.359860003    
 H2  0.921909988      0.336309999      0.361279994    
 H2  0.854910016      0.338919997      0.357400000    
 H2  0.924589992      0.396329999      0.348720014    
 C3  0.930130005      0.479039997      0.415050000    
 H1  0.936010003      0.502479970      0.427179992    
 C3  0.862959981      0.384229988      0.394560009    
 H1  0.822619975      0.343490005      0.392479986    
 C2  0.870270014      0.419629991      0.411780000    
 C2  0.422760010      0.872780025      0.337330014    
 C3  0.487830013      0.921490014      0.337969989    
 H1  0.517719984      0.921100020      0.328370005    
 C3  0.380270004      0.873239994      0.351760000    
 H1  0.334740013      0.839039981      0.351770014    
 C4  0.512740016      0.972389996      0.352319986    
 C5  0.587270021       2.79900003E-02  0.353119999    
 H2  0.612590015       1.23399999E-02  0.360940009    
 H2  0.605369985       3.86799984E-02  0.339619994    
 H2  0.590990007       6.80000037E-02  0.359329998    
 C4  0.403039992      0.923200011      0.366499990    
 C5  0.354429990      0.922290027      0.383280009    
 H2  0.336189985      0.950659990      0.379260004    
 H2  0.317909986      0.876470029      0.385280013    
 H2  0.379310012      0.939289987      0.395680010    
 C6  0.470310003      0.972949982      0.367150009    
 C6  0.494809985       2.65900008E-02  0.382950008    
 C3  0.535960019       2.50700004E-02  0.398220003    
 H1  0.543129981      -1.18100001E-02  0.399289995    
 C3  0.477719992       7.75099993E-02  0.381929994    
 H1  0.450780004       8.04300010E-02  0.371780008    
 C3  0.562039971       7.67199993E-02  0.412559986    
 H1  0.588869989       7.53099993E-02  0.423049986    
 C3  0.508120000      0.130199999      0.397049993    
 H1  0.498899996      0.165779993      0.396690011    
 C2  0.549369991      0.129730001      0.411780000    
 C2  0.455460012      0.580179989      0.336569995    
 C3  0.451029986      0.519630015      0.334899992    
 H1  0.430040002      0.493250012      0.323489994    
 C3  0.484770000      0.617209971      0.353560001    
 H1  0.487489998      0.659280002      0.355179995    
 C3  0.476139992      0.494379997      0.349420011    
 H1  0.472880006      0.451929986      0.348280013    
 C3  0.510510027      0.593840003      0.368570000    
 H1  0.529560030      0.618939996      0.380320013    
 C6  0.505280018      0.531140029      0.366789997    
 C6  0.531790018      0.505190015      0.382950008    
 C3  0.489120007      0.464040011      0.398220003    
 H1  0.445069999      0.456869990      0.399289995    
 C3  0.599799991      0.522279978      0.381929994    
 H1  0.629660010      0.549220026      0.371780008    
 C3  0.514689982      0.437959999      0.412559986    
 H1  0.486449987      0.411130011      0.423049986    
 C3  0.622089982      0.491880000      0.397049993    
 H1  0.666890025      0.501100004      0.396690011    
 C2  0.580370009      0.450630009      0.411780000    
 C2  0.127770007      0.210219994      0.169469997    
 C3  0.136470005      0.271930009      0.166130006    
 H1  0.125729993      0.281690001      0.153420001    
 C3  0.142150000      0.196400002      0.188270003    
 H1  0.135450006      0.153209999      0.191019997    
 C4  0.160630003      0.321889997      0.180769995    
 C5  0.170320004      0.392430007      0.176980004    
 H2  0.128260002      0.391779989      0.179600000    
 H2  0.183559999      0.405290008      0.163149998    
 H2  0.205129996      0.424750000      0.185819998    
 C4  0.166309997      0.244890004      0.203459993    
 C5  0.180910006      0.228029996      0.225079998    
 H2  0.228220001      0.241530001      0.226199999    
 H2  0.153469995      0.179969996      0.227489993    
 H2  0.170100003      0.252339989      0.234899998    
 C6  0.174669996      0.308219999      0.199929997    
 C6  0.199550003      0.360210001      0.216209993    
 C4  0.153809994      0.367430001      0.228410006    
 C5   7.98799992E-02  0.317710012      0.226909995    
 H2   5.93000017E-02  0.333929986      0.217350006    
 H2   5.90599999E-02  0.312559992      0.239910007    
 H2   7.35300034E-02  0.274450004      0.222479999    
 C4  0.269569993      0.401849985      0.218439996    
 C5  0.322400004      0.396880001      0.205180004    
 H2  0.332899988      0.364190012      0.210969999    
 H2  0.363119990      0.440600008      0.204500005    
 H2  0.304210007      0.382400006      0.191829994    
 C3  0.178719997      0.418689996      0.242870003    
 H1  0.148149997      0.423029989      0.251329988    
 C3  0.291429996      0.454919994      0.233419999    
 H1  0.337810010      0.484569997      0.235139996    
 C2  0.247030005      0.463070005      0.245120004    
 C2  0.789780021      0.917559981      0.169469997    
 C3  0.728070021      0.864549994      0.166130006    
 H1  0.718309999      0.844049990      0.153420001    
 C3  0.803600013      0.945760012      0.188270003    
 H1  0.846790016      0.982249975      0.191019997    
 C4  0.678110003      0.838750005      0.180769995    
 C5  0.607569993      0.777899981      0.176980004    
 H2  0.608219981      0.736490011      0.179600000    
 H2  0.594709992      0.778280020      0.163149998    
 H2  0.575250030      0.780390024      0.185819998    
 C4  0.755110025      0.921429992      0.203459993    
 C5  0.771969974      0.952889979      0.225079998    
 H2  0.758469999      0.986699998      0.226199999    
 H2  0.820029974      0.973510027      0.227489993    
 H2  0.747659981      0.917770028      0.234899998    
 C6  0.691779971      0.866460025      0.199929997    
 C6  0.639789999      0.839349985      0.216209993    
 C4  0.632570028      0.786390007      0.228410006    
 C5  0.682290018      0.762179971      0.226909995    
 H2  0.666069984      0.725380003      0.217350006    
 H2  0.687439978      0.746510029      0.239910007    
 H2  0.725549996      0.799090028      0.222479999    
 C4  0.598150015      0.867730021      0.218439996    
 C5  0.603120029      0.925530016      0.205180004    
 H2  0.635810018      0.968720019      0.210969999    
 H2  0.559400022      0.922529995      0.204500005    
 H2  0.617600024      0.921819985      0.191829994    
 C3  0.581309974      0.760039985      0.242870003    
 H1  0.576969981      0.725130022      0.251329988    
 C3  0.545080006      0.836520016      0.233419999    
 H1  0.515429974      0.853250027      0.235139996    
 C2  0.536930025      0.783969998      0.245120004    
 C2   8.24399963E-02  0.872229993      0.169469997    
 C3  0.135450006      0.863529980      0.166130006    
 H1  0.155949995      0.874270022      0.153420001    
 C3   5.42399995E-02  0.857850015      0.188270003    
 H1   1.77500006E-02  0.864549994      0.191019997    
 C4  0.161249995      0.839370012      0.180769995    
 C5  0.222100005      0.829680026      0.176980004    
 H2  0.263509989      0.871739984      0.179600000    
 H2  0.221719995      0.816439986      0.163149998    
 H2  0.219610006      0.794870019      0.185819998    
 C4   7.85700008E-02  0.833689988      0.203459993    
 C5   4.71099988E-02  0.819090009      0.225079998    
 H2   1.32999998E-02  0.771780014      0.226199999    
 H2   2.64899991E-02  0.846530020      0.227489993    
 H2   8.22300017E-02  0.829900026      0.234899998    
 C6  0.133540004      0.825330019      0.199929997    
 C6  0.160650000      0.800450027      0.216209993    
 C4  0.213609993      0.846189976      0.228410006    
 C5  0.237819999      0.920120001      0.226909995    
 H2  0.274619997      0.940699995      0.217350006    
 H2  0.253490001      0.940940022      0.239910007    
 H2  0.200910002      0.926469982      0.222479999    
 C4  0.132269993      0.730430007      0.218439996    
 C5   7.44699985E-02  0.677600026      0.205180004    
 H2   3.12799998E-02  0.667100012      0.210969999    
 H2   7.74699971E-02  0.636879981      0.204500005    
 H2   7.81800002E-02  0.695789993      0.191829994    
 C3  0.239960000      0.821280003      0.242870003    
 H1  0.274870008      0.851849973      0.251329988    
 C3  0.163479999      0.708570004      0.233419999    
 H1  0.146750003      0.662190020      0.235139996    
 C2  0.216030002      0.752969980      0.245120004    
 C2  0.847370028      0.445540011      0.653989971    
 C3  0.840520024      0.437469989      0.634010017    
 H1  0.796850026      0.413800001      0.628549993    
 C3  0.911440015      0.481649995      0.661639988    
 H1  0.917360008      0.488770008      0.675559998    
 C3  0.895510018      0.462909997      0.621089995    
 H1  0.890730023      0.457439989      0.607100010    
 C3  0.968159974      0.508329988      0.649249971    
 H1   1.01189005      0.533940017      0.654540002    
 C6  0.960619986      0.500199974      0.628650010    
 C6   2.11200006E-02  0.529529989      0.615209997    
 C3   4.52600010E-02  0.593370020      0.606670022    
 H1   2.68900003E-02  0.620280027      0.610580027    
 C3   5.13200015E-02  0.490370005      0.611209989    
 H1   3.60199995E-02  0.447070003      0.616519988    
 C3   9.99699980E-02  0.617969990      0.593410015    
 H1  0.117069997      0.661369979      0.587880015    
 C3  0.106720001      0.518630028      0.596899986    
 H1  0.127529994      0.493530005      0.593559980    
 C2  0.129730001      0.580370009      0.588220000    
 C2  0.598160028      0.152630001      0.653989971    
 C3  0.596939981      0.159480006      0.634010017    
 H1  0.616940022      0.203150004      0.628549993    
 C3  0.570200026       8.85600001E-02  0.661639988    
 H1  0.571399987       8.26399997E-02  0.675559998    
 C3  0.567390025      0.104489997      0.621089995    
 H1  0.566690028      0.109269999      0.607100010    
 C3  0.540160000       3.18400003E-02  0.649249971    
 H1  0.522040009      -1.18899997E-02  0.654540002    
 C6  0.539569974       3.93799990E-02  0.628650010    
 C6  0.506980002      0.973049998      0.617139995    
 C3  0.444849998      0.955810010      0.608380020    
 H1  0.423330009      0.980419993      0.611590028    
 C3  0.543780029      0.941789985      0.611370027    
 H1  0.585280001      0.951650023      0.617070019    
 C3  0.418069988      0.904839993      0.593829989    
 H1  0.376810014      0.893840015      0.587660015    
 C3  0.511849999      0.888239980      0.596560001    
 H1  0.534269989      0.865279973      0.592549980    
 C2  0.450630009      0.870270014      0.588220000    
 C2  0.533420026      0.410919994      0.663969994    
 C3  0.511250019      0.453860015      0.668219984    
 H1  0.511489987      0.466540009      0.681649983    
 C3  0.534240007      0.394320011      0.644230008    
 H1  0.550520003      0.365150005      0.640890002    
 C3  0.488079995      0.480410010      0.653519988    
 H1  0.472719997      0.510609984      0.656480014    
 C3  0.511680007      0.419889987      0.628950000    
 H1  0.513369977      0.409200013      0.615429997    
 C6  0.489360005      0.464509994      0.633449972    
 C6  0.466060013      0.493019998      0.617139995    
 C3  0.510950029      0.555149972      0.608380020    
 H1  0.557079971      0.576669991      0.611590028    
 C3  0.398000002      0.456220001      0.611370027    
 H1  0.366360009      0.414719999      0.617070019    
 C3  0.486759990      0.581929982      0.593829989    
 H1  0.517019987      0.623189986      0.587660015    
 C3  0.376379997      0.488150001      0.596560001    
 H1  0.331000000      0.465730011      0.592549980    
 C2  0.419629991      0.549369991      0.588220000    
 C2  0.533420026      0.122510001      0.163969994    
 C3  0.511250019       5.73999994E-02  0.168219998    
 H1  0.511489987       4.49599996E-02  0.181649998    
 C3  0.534240007      0.139929995      0.144229993    
 H1  0.550520003      0.185379997      0.140890002    
 C4  0.488079995       7.67999981E-03  0.153520003    
 C5  0.462969989      0.933189988      0.158360004    
 H2  0.500989974      0.925440013      0.158549994    
 H2  0.441179991      0.922209978      0.171379998    
 H2  0.431019992      0.904860020      0.148200005    
 C4  0.511680007       9.17999968E-02  0.128950000    
 C5  0.514500022      0.112489998      0.106349997    
 H2  0.471350014      0.107260004      0.102459997    
 H2  0.549570024      0.159089997      0.104599997    
 H2  0.524269998       8.37299973E-02   9.80499983E-02
 C6  0.489360005       2.48600002E-02  0.133450001    
 C6  0.466060013      0.973049998      0.117140003    
 C4  0.510950029      0.955810010      0.108379997    
 C5  0.584460020      0.995029986      0.113490000    
 H2  0.593630016      0.973569989      0.124640003    
 H2  0.610759974      0.996169984      0.101989999    
 H2  0.596469998       4.07899991E-02  0.117179997    
 C4  0.398000002      0.941789985      0.111369997    
 C5  0.345930010      0.958019972      0.120750003    
 H2  0.346810013      0.995440006      0.113559999    
 H2  0.301220000      0.918739974      0.119829997    
 H2  0.357290000      0.970420003      0.134690002    
 C3  0.486759990      0.904839993       9.38299969E-02
 H1  0.517019987      0.893840015       8.76599997E-02
 C3  0.376379997      0.888239980       9.65600014E-02
 H1  0.331000000      0.865279973       9.25500020E-02
 C2  0.419629991      0.870270014       8.82200003E-02
 C2  0.877489984      0.410919994      0.163969994    
 C3  0.942600012      0.453860015      0.168219998    
 H1  0.955039978      0.466540009      0.181649998    
 C3  0.860069990      0.394320011      0.144229993    
 H1  0.814620018      0.365150005      0.140890002    
 C4  0.992320001      0.480410010      0.153520003    
 C5   6.68099970E-02  0.529789984      0.158360004    
 H2   7.45600015E-02  0.575559974      0.158549994    
 H2   7.77899995E-02  0.518980026      0.171379998    
 H2   9.51400027E-02  0.526170015      0.148200005    
 C4  0.908200026      0.419889987      0.128950000    
 C5  0.887510002      0.402020007      0.106349997    
 H2  0.892740011      0.364100009      0.102459997    
 H2  0.840910017      0.390489995      0.104599997    
 H2  0.916270018      0.440549999       9.80499983E-02
 C6  0.975139976      0.464509994      0.133450001    
 C6   2.14300007E-02  0.492670000      0.115330003    
 C3   3.50899994E-02  0.450740010      0.103340000    
 H1   9.70000029E-03  0.403690010      0.104929999    
 C3   6.20899983E-02  0.563199997      0.114749998    
 H1   5.40100001E-02  0.592840016      0.122440003    
 C3   8.98300037E-02  0.480190009       9.00700018E-02
 H1   9.98599976E-02  0.452140003       8.22099969E-02
 C3  0.116880000      0.589959979      0.100240000    
 H1  0.144539997      0.636910021       9.91400033E-02
 C2  0.129730001      0.549369991       8.82200003E-02
 C2  0.592679977      0.441500008      0.154569998    
 C3  0.578559995      0.422030002      0.135330006    
 H1  0.588500023      0.389450014      0.130449995    
 C3  0.579360008      0.490300000      0.161290005    
 H1  0.589789987      0.505410016      0.174620003    
 C3  0.549950004      0.448300004      0.122350000    
 H1  0.540229976      0.434819996      0.108870000    
 C3  0.550870001      0.518299997      0.148790002    
 H1  0.542850018      0.552470028      0.153390005    
 C6  0.536920011      0.498279989      0.128940001    
 C6  0.507330000      0.528770030      0.115330003    
 C3  0.549260020      0.584360003      0.103340000    
 H1  0.596310019      0.606029987      0.104929999    
 C3  0.436800003      0.498899996      0.114749998    
 H1  0.407160014      0.461169988      0.122440003    
 C3  0.519810021      0.609650016       9.00700018E-02
 H1  0.547860026      0.647729993       8.22099969E-02
 C3  0.410039991      0.526929975      0.100240000    
 H1  0.363090008      0.507640004       9.91400033E-02
 C2  0.450630009      0.580370009       8.82200003E-02
 C2  0.819289982      0.887799978      0.679350019    
 C3  0.826139987      0.895869970      0.699329972    
 H1  0.869809985      0.919539988      0.704789996    
 C3  0.755219996      0.851689994      0.671700001    
 H1  0.749300003      0.844569981      0.657779992    
 C4  0.771149993      0.870429993      0.712249994    
 C5  0.778959990      0.879379988      0.735130012    
 H2  0.784160018      0.843249977      0.740880013    
 H2  0.818419993      0.922420025      0.738229990    
 H2  0.739229977      0.878009975      0.740750015    
 C4  0.698499978      0.825010002      0.684090018    
 C5  0.625429988      0.782209992      0.675249994    
 H2  0.606459975      0.811169982      0.672969997    
 H2  0.627330005      0.761889994      0.662689984    
 H2  0.597360015      0.747139990      0.684679985    
 C6  0.706040025      0.833140016      0.704689980    
 C6  0.645539999      0.803810000      0.718129992    
 C4  0.621399999      0.739970028      0.726670027    
 C5  0.650680006      0.697080016      0.720439970    
 H2  0.687390029      0.705160022      0.729380012    
 H2  0.616169989      0.650020003      0.721099973    
 H2  0.667460024      0.708440006      0.706770003    
 C4  0.615339994      0.842970014      0.722130001    
 C5  0.640529990      0.914240003      0.713389993    
 H2  0.619279981      0.910390019      0.700429976    
 H2  0.628950000      0.939970016      0.722469985    
 H2  0.688989997      0.936869979      0.711669981    
 C3  0.566690028      0.715369999      0.739929974    
 H1  0.549589992      0.671970010      0.745459974    
 C3  0.559939981      0.814710021      0.736440003    
 H1  0.539129972      0.839810014      0.739780009    
 C2  0.536930025      0.752969980      0.745119989    
 C2   6.84999973E-02  0.180710003      0.679350019    
 C3   6.97200000E-02  0.173859999      0.699329972    
 H1   4.97200005E-02  0.130190000      0.704789996    
 C3   9.64599997E-02  0.244780004      0.671700001    
 H1   9.52600017E-02  0.250699997      0.657779992    
 C4   9.92700011E-02  0.228850007      0.712249994    
 C5  0.100409999      0.221039996      0.735130012    
 H2   5.90800010E-02  0.215839997      0.740880013    
 H2  0.103990003      0.181580007      0.738229990    
 H2  0.138769999      0.260769993      0.740750015    
 C4  0.126499996      0.301499993      0.684090018    
 C5  0.156770006      0.374570012      0.675249994    
 H2  0.204699993      0.393539995      0.672969997    
 H2  0.134550005      0.372669995      0.662689984    
 H2  0.149770007      0.402640015      0.684679985    
 C6  0.127090007      0.293960005      0.704689980    
 C6  0.158639997      0.360179991      0.716260016    
 C4  0.226640001      0.388020009      0.721449971    
 C5  0.267619997      0.360029995      0.712559998    
 H2  0.289790004      0.384869993      0.700479984    
 H2  0.301290005      0.364300013      0.722130001    
 H2  0.238140002      0.312700003      0.709299982    
 C4  0.116870001      0.380650014      0.725639999    
 C5   4.17100005E-02  0.352440000      0.720290005    
 H2   1.39699997E-02  0.312189996      0.728219986    
 H2   2.90600006E-02  0.386150002      0.723160028    
 H2   3.48899998E-02  0.340930015      0.706170022    
 C3  0.253989995      0.438820004      0.736050010    
 H1  0.299459994      0.456939995      0.739820004    
 C3  0.149350002      0.434760004      0.740249991    
 H1  0.123460002      0.450709999      0.746609986    
 C2  0.216030002      0.463070005      0.745119989    
 C2  0.138160005      0.927779973      0.669619977    
 C3  0.173209995      0.896719992      0.665279984    
 H1  0.183019996      0.893299997      0.651780009    
 C3  0.122900002      0.930779994      0.689360023    
 H1   9.75399986E-02  0.951390028      0.692700028    
 C4  0.195429996      0.869289994      0.679989994    
 C5  0.235300004      0.833480000      0.675029993    
 H2  0.204080001      0.786279976      0.672129989    
 H2  0.263669997      0.854589999      0.663429976    
 H2  0.263229996      0.836820006      0.686399996    
 C4  0.143950000      0.903770030      0.704630017    
 C5  0.124710001      0.905879974      0.727129996    
 H2  0.161019996      0.945029974      0.733669996    
 H2   8.37000012E-02  0.908379972      0.727710009    
 H2  0.117610000      0.865450025      0.733910024    
 C6  0.179649994      0.871420026      0.700020015    
 C6  0.201529995      0.841359973      0.716260016    
 C4  0.161369994      0.773360014      0.721449971    
 C5   9.23999995E-02  0.732379973      0.712559998    
 H2   9.50699970E-02  0.710210025      0.700479984    
 H2   6.30000010E-02  0.698710024      0.722130001    
 H2   7.45500028E-02  0.761860013      0.709299982    
 C4  0.263770014      0.883130014      0.725639999    
 C5  0.310719997      0.958289981      0.720290005    
 H2  0.298209995      0.986029983      0.728219986    
 H2  0.357080013      0.970939994      0.723160028    
 H2  0.306030005      0.965110004      0.706170022    
 C3  0.184819996      0.746010005      0.736050010    
 H1  0.157470003      0.700540006      0.739820004    
 C3  0.285400003      0.850650012      0.740249991    
 H1  0.327239990      0.876540005      0.746609986    
 C2  0.247030005      0.783969998      0.745119989    
