data_cif
_audit_creation_method 'generated by iGOR'
_symmetry_space_group_name_H-M     'P 1'
_symmetry_Int_Tables_number        1
_symmetry_cell_setting             triclinic
_cell_length_a                     22.6522999
_cell_length_b                     22.6522999
_cell_length_c                     65.9502029
_cell_angle_alpha                  90.0000000
_cell_angle_beta                   90.0000000
_cell_angle_gamma                 120.0000000
loop_
_atom_site_label
_atom_site_fract_x
_atom_site_fract_y
_atom_site_fract_z
 O1   0.00000000      -0.00000000      0.625000000    
 Zn   0.00000000      -0.00000000      0.595889986    
 Zn  0.948480010       1.04288006      0.633920014    
 Zn   9.43899974E-02   5.15200011E-02  0.633920014    
 Zn  -4.28799987E-02  0.905610025      0.633920014    
 O2  0.938600004       2.61000004E-02  0.585870028    
 O2   8.74999985E-02   6.14000000E-02  0.585870028    
 O2  -2.61000004E-02  0.912500024      0.585870028    
 O2  0.913049996       7.16100037E-02  0.611810029    
 O2   4.61999979E-03  0.120219998      0.651099980    
 O2  0.874130011      0.980740011      0.650709987    
 O2  0.158559993       8.69499967E-02  0.611810029    
 O2  0.106600001      0.125870004      0.650709987    
 O2  0.115589999      0.995379984      0.651099980    
 O2  -7.16100037E-02  0.841440022      0.611810029    
 O2  0.879779994      0.884410024      0.651099980    
 O2   1.92600004E-02  0.893400013      0.650709987    
 C1  0.913900018       6.01999983E-02  0.593580008    
 C1  0.146300003       8.60999972E-02  0.593580008    
 C1  -6.01999983E-02  0.853699982      0.593580008    
 C1   6.66299984E-02  0.143969998      0.656729996    
 C1  0.856029987      0.922670007      0.656729996    
 C1   7.73300007E-02  0.933369994      0.656729996    
 O1  -0.00000000       0.00000000      0.875000000    
 Zn  -0.00000000       0.00000000      0.904110014    
 Zn   1.04288006      0.948480010      0.866079986    
 Zn   5.15200011E-02   9.43899974E-02  0.866079986    
 Zn  0.905610025      -4.28799987E-02  0.866079986    
 O2   2.61000004E-02  0.938600004      0.914129972    
 O2   6.14000000E-02   8.74999985E-02  0.914129972    
 O2  0.912500024      -2.61000004E-02  0.914129972    
 O2   7.16100037E-02  0.913049996      0.888189971    
 O2  0.120219998       4.61999979E-03  0.848900020    
 O2  0.980740011      0.874130011      0.849290013    
 O2   8.69499967E-02  0.158559993      0.888189971    
 O2  0.125870004      0.106600001      0.849290013    
 O2  0.995379984      0.115589999      0.848900020    
 O2  0.841440022      -7.16100037E-02  0.888189971    
 O2  0.884410024      0.879779994      0.848900020    
 O2  0.893400013       1.92600004E-02  0.849290013    
 C1   6.01999983E-02  0.913900018      0.906419992    
 C1   8.60999972E-02  0.146300003      0.906419992    
 C1  0.853699982      -6.01999983E-02  0.906419992    
 C1  0.143969998       6.66299984E-02  0.843270004    
 C1  0.922670007      0.856029987      0.843270004    
 C1  0.933369994       7.73300007E-02  0.843270004    
 O1   0.00000000       0.00000000      0.375000000    
 Zn   0.00000000       0.00000000      0.404110014    
 Zn   5.15200011E-02  -4.28799987E-02  0.366079986    
 Zn  0.905610025      0.948480010      0.366079986    
 Zn   1.04288006       9.43899974E-02  0.366079986    
 O2   6.14000000E-02  -2.61000004E-02  0.414130002    
 O2  0.912500024      0.938600004      0.414130002    
 O2   2.61000004E-02   8.74999985E-02  0.414130002    
 O2   8.69499967E-02  -7.16100037E-02  0.388190001    
 O2  0.995379984      0.879779994      0.348899990    
 O2  0.125870004       1.92600004E-02  0.349290013    
 O2  0.841440022      0.913049996      0.388190001    
 O2  0.893400013      0.874130011      0.349290013    
 O2  0.884410024       4.61999979E-03  0.348899990    
 O2   7.16100037E-02  0.158559993      0.388190001    
 O2  0.120219998      0.115589999      0.348899990    
 O2  0.980740011      0.106600001      0.349290013    
 C1   8.60999972E-02  -6.01999983E-02  0.406419992    
 C1  0.853699982      0.913900018      0.406419992    
 C1   6.01999983E-02  0.146300003      0.406419992    
 C1  0.933369994      0.856029987      0.343270004    
 C1  0.143969998       7.73300007E-02  0.343270004    
 C1  0.922670007       6.66299984E-02  0.343270004    
 O1   0.00000000       0.00000000      0.125000000    
 Zn   0.00000000       0.00000000       9.58900005E-02
 Zn  -4.28799987E-02   5.15200011E-02  0.133919999    
 Zn  0.948480010      0.905610025      0.133919999    
 Zn   9.43899974E-02   1.04288006      0.133919999    
 O2  -2.61000004E-02   6.14000000E-02   8.58699977E-02
 O2  0.938600004      0.912500024       8.58699977E-02
 O2   8.74999985E-02   2.61000004E-02   8.58699977E-02
 O2  -7.16100037E-02   8.69499967E-02  0.111809999    
 O2  0.879779994      0.995379984      0.151099995    
 O2   1.92600004E-02  0.125870004      0.150710002    
 O2  0.913049996      0.841440022      0.111809999    
 O2  0.874130011      0.893400013      0.150710002    
 O2   4.61999979E-03  0.884410024      0.151099995    
 O2  0.158559993       7.16100037E-02  0.111809999    
 O2  0.115589999      0.120219998      0.151099995    
 O2  0.106600001      0.980740011      0.150710002    
 C1  -6.01999983E-02   8.60999972E-02   9.35800001E-02
 C1  0.913900018      0.853699982       9.35800001E-02
 C1  0.146300003       6.01999983E-02   9.35800001E-02
 C1  0.856029987      0.933369994      0.156729996    
 C1   7.73300007E-02  0.143969998      0.156729996    
 C1   6.66299984E-02  0.922670007      0.156729996    
 O1  0.666670024      0.333330005      0.958329976    
 Zn  0.666670024      0.333330005      0.929220021    
 Zn  0.615149975      0.376210004      0.967249990    
 Zn  0.761059999      0.384849995      0.967249990    
 Zn -0.376210004      0.238940001      0.967249990    
 O2  0.605270028      0.359429985      0.919200003    
 O2  0.754170001      0.394730002      0.919200003    
 O2  0.640569985      0.245829999      0.919200003    
 O2  0.579720020      0.404940009      0.945140004    
 O2  0.671289980      0.453550011      0.984430015    
 O2  0.540799975      0.314069986      0.984040022    
 O2  0.825230002      0.420280010      0.945140004    
 O2  0.773270011      0.459199995      0.984040022    
 O2 -0.217739999      0.328709990      0.984430015    
 O2  0.595059991      0.174769998      0.945140004    
 O2  0.546450019      0.217739999      0.984430015    
 O2 -0.314069986      0.226730004      0.984040022    
 C1  0.580569983      0.393530011      0.926909983    
 C1  0.812969983      0.419429988      0.926909983    
 C1  0.606469989      0.187030002      0.926909983    
 C1  0.733299971      0.477299988      0.990059972    
 C1  0.522700012      0.256000012      0.990059972    
 C1 -0.256000012      0.266700000      0.990059972    
 O1  0.666670024      0.333330005      0.208330005    
 Zn  0.666670024      0.333330005      0.237440005    
 Zn  0.709540009      0.281819999      0.199420005    
 Zn  0.718180001      0.427729994      0.199420005    
 Zn  0.572269976      0.290459991      0.199420005    
 O2  0.692770004      0.271930009      0.247459993    
 O2  0.728070021      0.420830011      0.247459993    
 O2  0.579169989      0.307229996      0.247459993    
 O2  0.738279998      0.246380001      0.221520007    
 O2  0.786880016      0.337960005      0.182239994    
 O2  0.647400022      0.207470000      0.182630002    
 O2  0.753620028      0.491890013      0.221520007    
 O2  0.792530000      0.439940006      0.182630002    
 O2  0.662039995      0.448929995      0.182239994    
 O2  0.508109987      0.261720002      0.221520007    
 O2  0.551069975      0.213119999      0.182239994    
 O2  0.560060024      0.352600008      0.182630002    
 C1  0.726870000      0.247229993      0.239749998    
 C1  0.752770007      0.479629993      0.239749998    
 C1  0.520370007      0.273130000      0.239749998    
 C1  0.810630023      0.399969995      0.176609993    
 C1  0.589330018      0.189370006      0.176609993    
 C1  0.600030005      0.410670012      0.176609993    
 O1  0.666670024      0.333330005      0.708329976    
 Zn  0.666670024      0.333330005      0.737439990    
 Zn  0.718180001      0.290459991      0.699419975    
 Zn  0.572269976      0.281819999      0.699419975    
 Zn  0.709540009      0.427729994      0.699419975    
 O2  0.728070021      0.307229996      0.747460008    
 O2  0.579169989      0.271930009      0.747460008    
 O2  0.692770004      0.420830011      0.747460008    
 O2  0.753620028      0.261720002      0.721520007    
 O2  0.662039995      0.213119999      0.682240009    
 O2  0.792530000      0.352600008      0.682630002    
 O2  0.508109987      0.246380001      0.721520007    
 O2  0.560060024      0.207470000      0.682630002    
 O2  0.551069975      0.337960005      0.682240009    
 O2  0.738279998      0.491890013      0.721520007    
 O2  0.786880016      0.448929995      0.682240009    
 O2  0.647400022      0.439940006      0.682630002    
 C1  0.752770007      0.273130000      0.739750028    
 C1  0.520370007      0.247229993      0.739750028    
 C1  0.726870000      0.479629993      0.739750028    
 C1  0.600030005      0.189370006      0.676609993    
 C1  0.810630023      0.410670012      0.676609993    
 C1  0.589330018      0.399969995      0.676609993    
 O1  0.666670024      0.333330005      0.458330005    
 Zn  0.666670024      0.333330005      0.429219991    
 Zn -0.376210004      0.384849995      0.467249990    
 Zn  0.615149975      0.238940001      0.467249990    
 Zn  0.761059999      0.376210004      0.467249990    
 O2  0.640569985      0.394730002      0.419200003    
 O2  0.605270028      0.245829999      0.419200003    
 O2  0.754170001      0.359429985      0.419200003    
 O2  0.595059991      0.420280010      0.445140004    
 O2  0.546450019      0.328709990      0.484429985    
 O2 -0.314069986      0.459199995      0.484039992    
 O2  0.579720020      0.174769998      0.445140004    
 O2  0.540799975      0.226730004      0.484039992    
 O2  0.671289980      0.217739999      0.484429985    
 O2  0.825230002      0.404940009      0.445140004    
 O2 -0.217739999      0.453550011      0.484429985    
 O2  0.773270011      0.314069986      0.484039992    
 C1  0.606469989      0.419429988      0.426910013    
 C1  0.580569983      0.187030002      0.426910013    
 C1  0.812969983      0.393530011      0.426910013    
 C1  0.522700012      0.266700000      0.490060002    
 C1 -0.256000012      0.477299988      0.490060002    
 C1  0.733299971      0.256000012      0.490060002    
 O1  0.333330005      0.666670024      0.291669995    
 Zn  0.333330005      0.666670024      0.262560010    
 Zn  0.281819999      0.709540009      0.300579995    
 Zn  0.427729994      0.718180001      0.300579995    
 Zn  0.290459991      0.572269976      0.300579995    
 O2  0.271930009      0.692770004      0.252539992    
 O2  0.420830011      0.728070021      0.252539992    
 O2  0.307229996      0.579169989      0.252539992    
 O2  0.246380001      0.738279998      0.278479993    
 O2  0.337960005      0.786880016      0.317759991    
 O2  0.207470000      0.647400022      0.317369998    
 O2  0.491890013      0.753620028      0.278479993    
 O2  0.439940006      0.792530000      0.317369998    
 O2  0.448929995      0.662039995      0.317759991    
 O2  0.261720002      0.508109987      0.278479993    
 O2  0.213119999      0.551069975      0.317759991    
 O2  0.352600008      0.560060024      0.317369998    
 C1  0.247229993      0.726870000      0.260250002    
 C1  0.479629993      0.752770007      0.260250002    
 C1  0.273130000      0.520370007      0.260250002    
 C1  0.399969995      0.810630023      0.323390007    
 C1  0.189370006      0.589330018      0.323390007    
 C1  0.410670012      0.600030005      0.323390007    
 O1  0.333330005      0.666670024      0.541670024    
 Zn  0.333330005      0.666670024      0.570779979    
 Zn  0.376210004      0.615149975      0.532750010    
 Zn  0.384849995      0.761059999      0.532750010    
 Zn  0.238940001     -0.376210004      0.532750010    
 O2  0.359429985      0.605270028      0.580799997    
 O2  0.394730002      0.754170001      0.580799997    
 O2  0.245829999      0.640569985      0.580799997    
 O2  0.404940009      0.579720020      0.554859996    
 O2  0.453550011      0.671289980      0.515569985    
 O2  0.314069986      0.540799975      0.515959978    
 O2  0.420280010      0.825230002      0.554859996    
 O2  0.459199995      0.773270011      0.515959978    
 O2  0.328709990     -0.217739999      0.515569985    
 O2  0.174769998      0.595059991      0.554859996    
 O2  0.217739999      0.546450019      0.515569985    
 O2  0.226730004     -0.314069986      0.515959978    
 C1  0.393530011      0.580569983      0.573090017    
 C1  0.419429988      0.812969983      0.573090017    
 C1  0.187030002      0.606469989      0.573090017    
 C1  0.477299988      0.733299971      0.509940028    
 C1  0.256000012      0.522700012      0.509940028    
 C1  0.266700000     -0.256000012      0.509940028    
 O1  0.333330005      0.666670024       4.16699983E-02
 Zn  0.333330005      0.666670024       7.07800016E-02
 Zn  0.384849995     -0.376210004       3.27499993E-02
 Zn  0.238940001      0.615149975       3.27499993E-02
 Zn  0.376210004      0.761059999       3.27499993E-02
 O2  0.394730002      0.640569985       8.07999969E-02
 O2  0.245829999      0.605270028       8.07999969E-02
 O2  0.359429985      0.754170001       8.07999969E-02
 O2  0.420280010      0.595059991       5.48599996E-02
 O2  0.328709990      0.546450019       1.55699998E-02
 O2  0.459199995     -0.314069986       1.59600005E-02
 O2  0.174769998      0.579720020       5.48599996E-02
 O2  0.226730004      0.540799975       1.59600005E-02
 O2  0.217739999      0.671289980       1.55699998E-02
 O2  0.404940009      0.825230002       5.48599996E-02
 O2  0.453550011     -0.217739999       1.55699998E-02
 O2  0.314069986      0.773270011       1.59600005E-02
 C1  0.419429988      0.606469989       7.30900019E-02
 C1  0.187030002      0.580569983       7.30900019E-02
 C1  0.393530011      0.812969983       7.30900019E-02
 C1  0.266700000      0.522700012       9.94000025E-03
 C1  0.477299988     -0.256000012       9.94000025E-03
 C1  0.256000012      0.733299971       9.94000025E-03
 O1  0.333330005      0.666670024      0.791670024    
 Zn  0.333330005      0.666670024      0.762560010    
 Zn  0.290459991      0.718180001      0.800580025    
 Zn  0.281819999      0.572269976      0.800580025    
 Zn  0.427729994      0.709540009      0.800580025    
 O2  0.307229996      0.728070021      0.752539992    
 O2  0.271930009      0.579169989      0.752539992    
 O2  0.420830011      0.692770004      0.752539992    
 O2  0.261720002      0.753620028      0.778479993    
 O2  0.213119999      0.662039995      0.817759991    
 O2  0.352600008      0.792530000      0.817369998    
 O2  0.246380001      0.508109987      0.778479993    
 O2  0.207470000      0.560060024      0.817369998    
 O2  0.337960005      0.551069975      0.817759991    
 O2  0.491890013      0.738279998      0.778479993    
 O2  0.448929995      0.786880016      0.817759991    
 O2  0.439940006      0.647400022      0.817369998    
 C1  0.273130000      0.752770007      0.760249972    
 C1  0.247229993      0.520370007      0.760249972    
 C1  0.479629993      0.726870000      0.760249972    
 C1  0.189370006      0.600030005      0.823390007    
 C1  0.410670012      0.810630023      0.823390007    
 C1  0.399969995      0.589330018      0.823390007    
 C2 -0.195170000      0.543720007      0.502950013    
 C3 -0.160119995      0.609830022      0.498609990    
 H1 -0.150309995      0.623059988      0.485110015    
 C3 -0.210429996      0.525460005      0.522689998    
 H1 -0.235789999      0.479490012      0.526030004    
 C4 -0.137899995      0.659479976      0.513320029    
 C5  -9.80300009E-02  0.735159993      0.508360028    
 H2 -0.129250005      0.751139998      0.505460024    
 H2  -6.96600005E-02  0.742420018      0.496760011    
 H2  -7.01000020E-02  0.759750009      0.519729972    
 C4 -0.189380005      0.573520005      0.537959993    
 C5 -0.208619997      0.552169979      0.560459971    
 H2 -0.172309995      0.549329996      0.566999972    
 H2 -0.249630004      0.508660018      0.561039984    
 H2 -0.215719998      0.585500002      0.567240000    
 C6 -0.153679997      0.641569972      0.533349991    
 C6 -0.131799996      0.693509996      0.549589992    
 C4 -0.171959996      0.721350014      0.554780006    
 C5 -0.240930006      0.693359971      0.545889974    
 H2 -0.238260001      0.718200028      0.533810019    
 H2 -0.270330012      0.697629988      0.555459976    
 H2 -0.258780003      0.646030009      0.542630017    
 C4  -6.95599988E-02  0.713980019      0.558969975    
 C5  -2.26099994E-02  0.685769975      0.553619981    
 H2  -3.51199992E-02  0.645519972      0.561550021    
 H2   2.37499997E-02  0.719479978      0.556490004    
 H2  -2.73000002E-02  0.674260020      0.539499998    
 C3 -0.148509994      0.772149980      0.569379985    
 H1 -0.175860003      0.790269971      0.573149979    
 C3  -4.79299985E-02  0.768090010      0.573580027    
 H1  -6.08999981E-03  0.784039974      0.579940021    
 C2  -8.63000005E-02  0.796400011      0.578450024    
 C2  0.456279993      0.261110008      0.502950013    
 C3  0.390170008      0.230049998      0.498609990    
 H1  0.376940012      0.226630002      0.485110015    
 C3  0.474539995      0.264109999      0.522689998    
 H1  0.520510018      0.284720004      0.526030004    
 C4  0.340519994      0.202620000      0.513320029    
 C5  0.264840007      0.166810006      0.508360028    
 H2  0.248860002      0.119609997      0.505460024    
 H2  0.257580012      0.187920004      0.496760011    
 H2  0.240250006      0.170149997      0.519729972    
 C4  0.426479995      0.237100005      0.537959993    
 C5  0.447829992      0.239209995      0.560459971    
 H2  0.450670004      0.278360009      0.566999972    
 H2  0.491340011      0.241710007      0.561039984    
 H2  0.414499998      0.198780000      0.567240000    
 C6  0.358429998      0.204750001      0.533349991    
 C6  0.306490004      0.174689993      0.549589992    
 C4  0.278649986      0.106689997      0.554780006    
 C5  0.306639999       6.57100007E-02  0.545889974    
 H2  0.281800002       4.35400009E-02  0.533810019    
 H2  0.302370012       3.20400000E-02  0.555459976    
 H2  0.353969991       9.51900035E-02  0.542630017    
 C4  0.286020011      0.216460004      0.558969975    
 C5  0.314229995      0.291619986      0.553619981    
 H2  0.354479998      0.319359988      0.561550021    
 H2  0.280519992      0.304269999      0.556490004    
 H2  0.325740010      0.298440009      0.539499998    
 C3  0.227850005       7.93400034E-02  0.569379985    
 H1  0.209729999       3.38700004E-02  0.573149979    
 C3  0.231910005      0.183980003      0.573580027    
 H1  0.215959996      0.209869996      0.579940021    
 C2  0.203600004      0.117299996      0.578450024    
 C2  0.738889992      0.195170000      0.502950013    
 C3  0.769949973      0.160119995      0.498609990    
 H1  0.773370028      0.150309995      0.485110015    
 C3  0.735889971      0.210429996      0.522689998    
 H1  0.715279996      0.235789999      0.526030004    
 C4  0.797379971      0.137899995      0.513320029    
 C5  0.833190024       9.80300009E-02  0.508360028    
 H2  0.880389988      0.129250005      0.505460024    
 H2  0.812080026       6.96600005E-02  0.496760011    
 H2  0.829850018       7.01000020E-02  0.519729972    
 C4  0.762899995      0.189380005      0.537959993    
 C5  0.760789990      0.208619997      0.560459971    
 H2  0.721639991      0.172309995      0.566999972    
 H2  0.758289993      0.249630004      0.561039984    
 H2  0.801220000      0.215719998      0.567240000    
 C6  0.795249999      0.153679997      0.533349991    
 C6  0.825309992      0.131799996      0.549589992    
 C4  0.893310010      0.171959996      0.554780006    
 C5  0.934289992      0.240930006      0.545889974    
 H2  0.956459999      0.238260001      0.533810019    
 H2  0.967960000      0.270330012      0.555459976    
 H2  0.904810011      0.258780003      0.542630017    
 C4  0.783540010       6.95599988E-02  0.558969975    
 C5  0.708379984       2.26099994E-02  0.553619981    
 H2  0.680639982       3.51199992E-02  0.561550021    
 H2  0.695729971      0.976249993      0.556490004    
 H2  0.701560020       2.73000002E-02  0.539499998    
 C3  0.920660019      0.148509994      0.569379985    
 H1  0.966130018      0.175860003      0.573149979    
 C3  0.816020012       4.79299985E-02  0.573580027    
 H1  0.790130019       6.08999981E-03  0.579940021    
 C2  0.882700026       8.63000005E-02  0.578450024    
 C2  0.515479982     -0.225170001      0.987900019    
 C3  0.510129988     -0.244639993      0.968659997    
 H1  0.467610002     -0.277220011      0.963779986    
 C3  0.577600002     -0.176369995      0.994620025    
 H1  0.582279980     -0.161259994       7.95000046E-03
 C4  0.565010011     -0.218370005      0.955680013    
 C5  0.558860004     -0.240410000      0.933640003    
 H2  0.546150029     -0.213369995      0.925480008    
 H2  0.524699986     -0.287589997      0.932449996    
 H2  0.601800025     -0.234109998      0.929040015    
 C4  0.634090006     -0.148369998      0.982119977    
 C5  0.704609990      -9.12600011E-02  0.989799976    
 H2  0.730910003     -0.111149997      0.994430006    
 H2  0.698199987      -6.70899972E-02   7.30000029E-04
 H2  0.728280008      -6.02900013E-02  0.978929996    
 C6  0.628019989     -0.168390006      0.962270021    
 C6  0.688099980     -0.137899995      0.948660016    
 C4  0.701759994      -8.23099986E-02  0.936670005    
 C5  0.661300004      -4.77799997E-02  0.939209998    
 H2  0.623310030      -6.73400015E-02  0.930050015    
 H2  0.689360023      -2.30000005E-04  0.936309993    
 H2  0.645049989      -5.35200015E-02  0.952950001    
 C4  0.728760004     -0.167769998      0.948080003    
 C5  0.715449989     -0.229890004      0.960749984    
 H2  0.737420022     -0.214969993      0.973730028    
 H2  0.733349979     -0.254810005      0.953830004    
 H2  0.667349994     -0.258579999      0.962710023    
 C3  0.756500006      -5.70200011E-02  0.923399985    
 H1  0.766529977      -1.89399999E-02  0.915539980    
 C3  0.783550024     -0.139740005      0.933570027    
 H1  0.811209977     -0.159030005      0.932470024    
 C2  0.796400011      -8.63000005E-02  0.921549976    
 C2  0.259350002      0.484519988      0.987900019    
 C3  0.245230004      0.489870012      0.968659997    
 H1  0.255169988      0.532389998      0.963779986    
 C3  0.246030003      0.422399998      0.994620025    
 H1  0.256460011      0.417719990       7.95000046E-03
 C4  0.216619998      0.434989989      0.955680013    
 C5  0.200729996      0.441139996      0.933640003    
 H2  0.240480006      0.453850001      0.925480008    
 H2  0.187710002      0.475300014      0.932449996    
 H2  0.164089993      0.398200005      0.929040015    
 C4  0.217539996      0.365909994      0.982119977    
 C5  0.204129994      0.295390010      0.989799976    
 H2  0.157940000      0.269089997      0.994430006    
 H2  0.234709993      0.301800013       7.30000029E-04
 H2  0.211429998      0.271719992      0.978929996    
 C6  0.203590006      0.371980011      0.962270021    
 C6  0.173649997      0.306380004      0.950469971    
 C4  0.111520000      0.289139986      0.941709995    
 C5   7.72299990E-02  0.328359991      0.946820021    
 H2   4.65999991E-02  0.306899995      0.957970023    
 H2   5.20699993E-02  0.329499990      0.935320020    
 H2  0.110979997      0.374119997      0.950510025    
 C4  0.210449994      0.275119990      0.944700003    
 C5  0.278750002      0.291350007      0.954079986    
 H2  0.315290004      0.328770012      0.946889997    
 H2  0.284179986      0.252070010      0.953159988    
 H2  0.279790014      0.303750008      0.968020022    
 C3   8.47399980E-02  0.238169998      0.927160025    
 H1   4.34800014E-02  0.227170005      0.920989990    
 C3  0.178519994      0.221570000      0.929889977    
 H1  0.200939998      0.198609993      0.925880015    
 C2  0.117299996      0.203600004      0.921549976    
 C2  0.200090006      0.744250000      0.997300029    
 C3  0.177919999      0.787190020       1.55000004E-03
 H1  0.178159997      0.799870014       1.49800004E-02
 C3  0.200910002      0.727649987      0.977559984    
 H1  0.217189997      0.698480010      0.974219978    
 C4  0.154750004      0.813740015      0.986850023    
 C5  0.129639998      0.863120019      0.991689980    
 H2  0.167659998      0.908890009      0.991880000    
 H2  0.107850000      0.852310002       4.71000001E-03
 H2   9.76900011E-02  0.859499991      0.981530011    
 C4  0.178350002      0.753220022      0.962279975    
 C5  0.181170002      0.735350013      0.939679980    
 H2  0.138019994      0.697430015      0.935790002    
 H2  0.216240004      0.723819971      0.937929988    
 H2  0.190939993      0.773880005      0.931379974    
 C6  0.156029999      0.797839999      0.966780007    
 C6  0.132730007      0.826349974      0.950469971    
 C4  0.177619994      0.888480008      0.941709995    
 C5  0.251130015      0.922770023      0.946820021    
 H2  0.260300010      0.953400016      0.957970023    
 H2  0.277429998      0.947929978      0.935320020    
 H2  0.263139993      0.889020026      0.950510025    
 C4   6.46699965E-02  0.789550006      0.944700003    
 C5   1.26000000E-02  0.721249998      0.954079986    
 H2   1.34800002E-02  0.684710026      0.946889997    
 H2  0.967890024      0.715820014      0.953159988    
 H2   2.39599999E-02  0.720210016      0.968020022    
 C3  0.153430000      0.915260017      0.927160025    
 H1  0.183689997      0.956520021      0.920989990    
 C3   4.30499986E-02  0.821479976      0.929889977    
 H1  0.997669995      0.799059987      0.925880015    
 C2   8.63000005E-02  0.882700026      0.921549976    
 C2  0.228220001      0.471460015      0.492469996    
 C3  0.265630007      0.450329989      0.482730001    
 H1  0.312260002      0.472229987      0.485229999    
 C3  0.160540000      0.439960003      0.488249987    
 H1  0.133599997      0.454609990      0.494670004    
 C4  0.238069996      0.397410005      0.469049990    
 C5  0.280900002      0.373389989      0.457819998    
 H2  0.299380004      0.400119990      0.445730001    
 H2  0.317460001      0.378679991      0.466380000    
 H2  0.252959996      0.326290011      0.454219997    
 C4  0.130679995      0.386750013      0.474579990    
 C5   5.35000004E-02  0.352200001      0.469449997    
 H2   2.85899993E-02  0.312579989      0.477780014    
 H2   3.76500003E-02  0.383700013      0.471890002    
 H2   4.66799997E-02  0.338930011      0.455469996    
 C6  0.169699997      0.365610003      0.464489996    
 C6  0.138310000      0.309289992      0.449570000    
 C4  0.137229994      0.323139995      0.429170012    
 C5  0.159860000      0.393739998      0.422450006    
 H2  0.207479998      0.416350007      0.419149995    
 H2  0.134450004      0.392569989      0.410710007    
 H2  0.152250007      0.417939991      0.433180004    
 C4  0.111720003      0.243049994      0.456699997    
 C5  0.112520002      0.224849999      0.479009986    
 H2   7.24100024E-02  0.219769999      0.485670000    
 H2  0.113100000      0.182879999      0.479920000    
 H2  0.152270004      0.260589987      0.485460013    
 C3  0.110390000      0.269510001      0.415490001    
 H1  0.108570002      0.278499991      0.401789993    
 C3   8.63400027E-02  0.190320000      0.441529989    
 H1   6.91900030E-02  0.145459995      0.445639998    
 C2   8.63000005E-02  0.203600004      0.421550006    
 C2  0.528540015      0.756760001      0.492469996    
 C3  0.549669981      0.815299988      0.482730001    
 H1  0.527769983      0.840030015      0.485229999    
 C3  0.560039997      0.720579982      0.488249987    
 H1  0.545390010      0.678990006      0.494670004    
 C4  0.602590024      0.840659976      0.469049990    
 C5  0.626609981      0.907509983      0.457819998    
 H2  0.599879980      0.899259984      0.445730001    
 H2  0.621320009      0.938780010      0.466380000    
 H2  0.673709989      0.926670015      0.454219997    
 C4  0.613250017      0.743929982      0.474579990    
 C5  0.647800028      0.701300025      0.469449997    
 H2  0.687420011      0.716009974      0.477780014    
 H2  0.616299987      0.653949976      0.471890002    
 H2  0.661069989      0.707750022      0.455469996    
 C6  0.634389997      0.804090023      0.464489996    
 C6  0.690710008      0.829020023      0.449570000    
 C4  0.676859975      0.814090014      0.429170012    
 C5  0.606260002      0.766120017      0.422450006    
 H2  0.583649993      0.791130006      0.419149995    
 H2  0.607429981      0.741880000      0.410710007    
 H2  0.582059979      0.734309971      0.433180004    
 C4  0.756950021      0.868669987      0.456699997    
 C5  0.775150001      0.887669981      0.479009986    
 H2  0.780229986      0.852639973      0.485670000    
 H2  0.817120016      0.930220008      0.479920000    
 H2  0.739409983      0.891680002      0.485460013    
 C3  0.730490029      0.840879977      0.415490001    
 H1  0.721499979      0.830070019      0.401789993    
 C3  0.809679985      0.896019995      0.441529989    
 H1  0.854539990      0.923730016      0.445639998    
 C2  0.796400011      0.882700026      0.421550006    
 C2  0.243239999     -0.228220001      0.492469996    
 C3  0.184699997     -0.265630007      0.482730001    
 H1  0.159970000     -0.312260002      0.485229999    
 C3  0.279419988     -0.160540000      0.488249987    
 H1  0.321009994     -0.133599997      0.494670004    
 C4  0.159339994     -0.238069996      0.469049990    
 C5   9.24900025E-02 -0.280900002      0.457819998    
 H2  0.100740001     -0.299380004      0.445730001    
 H2   6.12200014E-02 -0.317460001      0.466380000    
 H2   7.33300000E-02 -0.252959996      0.454219997    
 C4  0.256069988     -0.130679995      0.474579990    
 C5  0.298700005      -5.35000004E-02  0.469449997    
 H2  0.283989996      -2.85899993E-02  0.477780014    
 H2  0.346049994      -3.76500003E-02  0.471890002    
 H2  0.292250007      -4.66799997E-02  0.455469996    
 C6  0.195910007     -0.169699997      0.464489996    
 C6  0.170980006     -0.138310000      0.449570000    
 C4  0.185910001     -0.137229994      0.429170012    
 C5  0.233879998     -0.159860000      0.422450006    
 H2  0.208869994     -0.207479998      0.419149995    
 H2  0.258120000     -0.134450004      0.410710007    
 H2  0.265689999     -0.152250007      0.433180004    
 C4  0.131329998     -0.111720003      0.456699997    
 C5  0.112329997     -0.112520002      0.479009986    
 H2  0.147359997      -7.24100024E-02  0.485670000    
 H2   6.97799996E-02 -0.113100000      0.479920000    
 H2  0.108319998     -0.152270004      0.485460013    
 C3  0.159119993     -0.110390000      0.415490001    
 H1  0.169929996     -0.108570002      0.401789993    
 C3  0.103979997      -8.63400027E-02  0.441529989    
 H1   7.62699991E-02  -6.91900030E-02  0.445639998    
 C2  0.117299996      -8.63000005E-02  0.421550006    
 C2  0.460550010      0.216639996       4.00000019E-03
 C3  0.411839992      0.232999995       4.63999994E-03
 H1  0.412230015      0.263280004      0.995039999    
 C3  0.460090011      0.173690006       1.84300002E-02
 H1  0.494289994      0.162359998       1.84400007E-02
 C4  0.360940009      0.207010001       1.89900007E-02
 C5  0.305339992      0.225940004       1.97899994E-02
 H2  0.320989996      0.266909987       2.76100002E-02
 H2  0.294649988      0.233349994       6.28999993E-03
 H2  0.265329987      0.189649999       2.60000005E-02
 C4  0.410129994      0.146500006       3.31699997E-02
 C5  0.411040008       9.88000035E-02   4.99499999E-02
 H2  0.382669985       5.21899983E-02   4.59299982E-02
 H2  0.456860006      0.108099997       5.19500002E-02
 H2  0.394039989      0.106679998       6.23500012E-02
 C6  0.360379994      0.164020002       3.38199995E-02
 C6  0.307200015      0.135949999       4.97500002E-02
 C4  0.315580010      0.171839997       6.75299987E-02
 C5  0.381359994      0.234410003       7.18000010E-02
 H2  0.379720002      0.273449987       6.69000000E-02
 H2  0.389369994      0.238700002       8.61100033E-02
 H2  0.417560011      0.231480002       6.51099980E-02
 C4  0.248750001       7.38100037E-02   4.60299999E-02
 C5  0.236310005       3.25100012E-02   2.65299994E-02
 H2  0.255239993       2.98000011E-03   2.79500000E-02
 H2  0.188240007       5.59000019E-03   2.40700003E-02
 H2  0.257919997       6.30000010E-02   1.53900003E-02
 C3  0.263460010      0.145710006       8.17200020E-02
 H1  0.269340008      0.169149995       9.38500017E-02
 C3  0.196290001       5.09000011E-02   6.12300001E-02
 H1  0.155949995       1.01600001E-02   5.91499992E-02
 C2  0.203600004       8.63000005E-02   7.84500018E-02
 C2  0.756089985      0.539449990       4.00000019E-03
 C3  0.821160018      0.588159978       4.63999994E-03
 H1  0.851050019      0.587769985      0.995039999    
 C3  0.713599980      0.539910018       1.84300002E-02
 H1  0.668070018      0.505710006       1.84400007E-02
 C4  0.846069992      0.639060020       1.89900007E-02
 C5  0.920599997      0.694660008       1.97899994E-02
 H2  0.945919991      0.679009974       2.76100002E-02
 H2  0.938700020      0.705349982       6.28999993E-03
 H2  0.924319983      0.734669983       2.60000005E-02
 C4  0.736370027      0.589869976       3.31699997E-02
 C5  0.687759995      0.588959992       4.99499999E-02
 H2  0.669520020      0.617330015       4.59299982E-02
 H2  0.651239991      0.543139994       5.19500002E-02
 H2  0.712639987      0.605960011       6.23500012E-02
 C6  0.803640008      0.639620006       3.38199995E-02
 C6  0.828750014      0.692799985       4.97500002E-02
 C4  0.856260002      0.684419990       6.75299987E-02
 C5  0.853049994      0.618640006       7.18000010E-02
 H2  0.893729985      0.620280027       6.69000000E-02
 H2  0.849330008      0.610629976       8.61100033E-02
 H2  0.813920021      0.582440019       6.51099980E-02
 C4  0.825060010      0.751250029       4.60299999E-02
 C5  0.796199977      0.763689995       2.65299994E-02
 H2  0.747739971      0.744759977       2.79500000E-02
 H2  0.817349970      0.811760008       2.40700003E-02
 H2  0.805079997      0.742079973       1.53900003E-02
 C3  0.882250011      0.736540020       8.17200020E-02
 H1  0.899810016      0.730660021       9.38500017E-02
 C3  0.854610026      0.803709984       6.12300001E-02
 H1  0.854210019      0.844049990       5.91499992E-02
 C2  0.882700026      0.796400011       7.84500018E-02
 C2 -0.216639996      0.243910000       4.00000019E-03
 C3 -0.232999995      0.178839996       4.63999994E-03
 H1 -0.263280004      0.148949996      0.995039999    
 C3 -0.173690006      0.286399990       1.84300002E-02
 H1 -0.162359998      0.331930012       1.84400007E-02
 C4 -0.207010001      0.153929994       1.89900007E-02
 C5 -0.225940004       7.94000030E-02   1.97899994E-02
 H2 -0.266909987       5.40799983E-02   2.76100002E-02
 H2 -0.233349994       6.12999983E-02   6.28999993E-03
 H2 -0.189649999       7.56800026E-02   2.60000005E-02
 C4 -0.146500006      0.263630003       3.31699997E-02
 C5  -9.88000035E-02  0.312240005       4.99499999E-02
 H2  -5.21899983E-02  0.330480009       4.59299982E-02
 H2 -0.108099997      0.348760009       5.19500002E-02
 H2 -0.106679998      0.287360013       6.23500012E-02
 C6 -0.164020002      0.196360007       3.38199995E-02
 C6 -0.135949999      0.171250001       4.97500002E-02
 C4 -0.171839997      0.143739998       6.75299987E-02
 C5 -0.234410003      0.146950006       7.18000010E-02
 H2 -0.273449987      0.106270000       6.69000000E-02
 H2 -0.238700002      0.150670007       8.61100033E-02
 H2 -0.231480002      0.186079994       6.51099980E-02
 C4  -7.38100037E-02  0.174940005       4.60299999E-02
 C5  -3.25100012E-02  0.203799993       2.65299994E-02
 H2  -2.98000011E-03  0.252260000       2.79500000E-02
 H2  -5.59000019E-03  0.182650000       2.40700003E-02
 H2  -6.30000010E-02  0.194920003       1.53900003E-02
 C3 -0.145710006      0.117749996       8.17200020E-02
 H1 -0.169149995      0.100189999       9.38500017E-02
 C3  -5.09000011E-02  0.145390004       6.12300001E-02
 H1  -1.01600001E-02  0.145789996       5.91499992E-02
 C2  -8.63000005E-02  0.117299996       7.84500018E-02
 C2  0.450029999      0.872780025      0.837329984    
 C3  0.433670014      0.921490014      0.837970018    
 H1  0.403389990      0.921100020      0.828369975    
 C3  0.492980003      0.873239994      0.851760030    
 H1  0.504310012      0.839039981      0.851769984    
 C4  0.459659994      0.972389996      0.852320015    
 C5  0.440730006       2.79900003E-02  0.853120029    
 H2  0.399760008       1.23399999E-02  0.860939980    
 H2  0.433319986       3.86799984E-02  0.839619994    
 H2  0.477019995       6.80000037E-02  0.859329998    
 C4  0.520169973      0.923200011      0.866500020    
 C5  0.567870021      0.922290027      0.883279979    
 H2  0.614480019      0.950659990      0.879260004    
 H2  0.558570027      0.876470029      0.885280013    
 H2  0.559989989      0.939289987      0.895680010    
 C6  0.502650023      0.972949982      0.867150009    
 C6  0.530719995       2.61300001E-02  0.883080006    
 C4  0.494830012       1.77500006E-02  0.900860012    
 C5  0.432260007      0.951969981      0.905130029    
 H2  0.393220007      0.953610003      0.900229990    
 H2  0.427969992      0.943960011      0.919439971    
 H2  0.435189992      0.915769994      0.898440003    
 C4  0.592859983       8.45799968E-02  0.879360020    
 C5  0.634159982       9.70200002E-02  0.859860003    
 H2  0.663689971       7.80899972E-02  0.861280024    
 H2  0.661080003      0.145089999      0.857400000    
 H2  0.603670001       7.54100010E-02  0.848720014    
 C3  0.520959973       6.98700026E-02  0.915050030    
 H1  0.497520000       6.39899969E-02  0.927179992    
 C3  0.615769982      0.137040004      0.894559979    
 H1  0.656509995      0.177379996      0.892480016    
 C2  0.580370009      0.129730001      0.911780000    
 C2  0.127220005      0.577239990      0.837329984    
 C3   7.85100013E-02  0.512170017      0.837970018    
 H1   7.89000019E-02  0.482279986      0.828369975    
 C3  0.126760006      0.619729996      0.851760030    
 H1  0.160960004      0.665260017      0.851769984    
 C4   2.76100002E-02  0.487260014      0.852320015    
 C5  0.972010016      0.412730008      0.853120029    
 H2  0.987659991      0.387410015      0.860939980    
 H2  0.961319983      0.394630015      0.839619994    
 H2  0.931999981      0.409009993      0.859329998    
 C4   7.68000036E-02  0.596960008      0.866500020    
 C5   7.77100027E-02  0.645569980      0.883279979    
 H2   4.93399985E-02  0.663810015      0.879260004    
 H2  0.123530000      0.682089984      0.885280013    
 H2   6.07100017E-02  0.620689988      0.895680010    
 C6   2.70499997E-02  0.529690027      0.867150009    
 C6  0.974479973      0.504220009      0.883270025    
 C4  0.987380028      0.491270006      0.902809978    
 C5   5.76299988E-02  0.509949982      0.908840001    
 H2   6.43199980E-02  0.471789986      0.906700015    
 H2   6.42900020E-02  0.522230029      0.922890007    
 H2   8.97400007E-02  0.547980011      0.900799990    
 C4  0.910759985      0.493330002      0.877539992    
 C5  0.893339992      0.505699992      0.856100023    
 H2  0.904179990      0.552420020      0.854860008    
 H2  0.845650017      0.476090014      0.853590012    
 H2  0.919520020      0.496780008      0.846440017    
 C3  0.934750021      0.465180010      0.916830003    
 H1  0.943480015      0.457419991      0.930079997    
 C3  0.858359993      0.464590013      0.892790020    
 H1  0.814760029      0.455469996      0.889460027    
 C2  0.870270014      0.450630009      0.911780000    
 C2  0.424400002      0.554830015      0.838339984    
 C3  0.490660012      0.581080019      0.841790020    
 H1  0.521449983      0.619050026      0.834379971    
 C3  0.380199999      0.500450015      0.849650025    
 H1  0.333579987      0.481909990      0.847700000    
 C4  0.515470028      0.554350019      0.855929971    
 C5  0.591289997      0.584550023      0.859960020    
 H2  0.605949998      0.620459974      0.869809985    
 H2  0.616169989      0.602630019      0.847590029    
 H2  0.599650025      0.549730003      0.865040004    
 C4  0.402759999      0.472039998      0.864069998    
 C5  0.351749986      0.410919994      0.877309978    
 H2  0.343910009      0.369109988      0.871259987    
 H2  0.309509993      0.410939991      0.878269970    
 H2  0.370490015      0.415019989      0.890600026    
 C6  0.471139997      0.499720007      0.867630005    
 C6  0.495779991      0.470250010      0.883270025    
 C4  0.508729994      0.496100008      0.902809978    
 C5  0.490049988      0.547670007      0.908840001    
 H2  0.528209984      0.592519999      0.906700015    
 H2  0.477770001      0.542050004      0.922890007    
 H2  0.452019989      0.541750014      0.900799990    
 C4  0.506669998      0.417420000      0.877539992    
 C5  0.494300008      0.387629986      0.856100023    
 H2  0.447580010      0.351749986      0.854860008    
 H2  0.523909986      0.369549990      0.853590012    
 H2  0.503220022      0.422729999      0.846440017    
 C3  0.534820020      0.469559997      0.916830003    
 H1  0.542580009      0.486050010      0.930079997    
 C3  0.535409987      0.393759996      0.892790020    
 H1  0.544529974      0.359279990      0.889460027    
 C2  0.549369991      0.419629991      0.911780000    
 C2  0.206119999      0.116690002      0.329329997    
 C3  0.254830003      0.100330003      0.328689992    
 H1  0.254440010       7.00500011E-02  0.338290006    
 C3  0.206579998      0.159639999      0.314900011    
 H1  0.172380000      0.170969993      0.314889997    
 C4  0.305729985      0.126320004      0.314339995    
 C5  0.361330003      0.107390001      0.313540012    
 H2  0.345679998       6.64199963E-02  0.305720001    
 H2  0.372020006       9.99799967E-02  0.327039987    
 H2  0.401340008      0.143680006      0.307330012    
 C4  0.256540000      0.186829999      0.300159991    
 C5  0.255629987      0.234530002      0.283380002    
 H2  0.284000009      0.281140000      0.287400007    
 H2  0.209810004      0.225229993      0.281379998    
 H2  0.272630006      0.226650000      0.270980000    
 C6  0.306290001      0.169310004      0.299510002    
 C6  0.359470010      0.197380006      0.283580005    
 C4  0.351090014      0.161489993      0.265799999    
 C5  0.285310000       9.89200026E-02  0.261530012    
 H2  0.286949992       5.98799996E-02  0.266429991    
 H2  0.277300000       9.46300030E-02  0.247219995    
 H2  0.249109998      0.101850003      0.268220007    
 C4  0.417919993      0.259519994      0.287299991    
 C5  0.430359989      0.300819993      0.306800008    
 H2  0.411430001      0.330350012      0.305379987    
 H2  0.478430003      0.327740014      0.309260011    
 H2  0.408749998      0.270330012      0.317939997    
 C3  0.403210014      0.187619999      0.251610011    
 H1  0.397329986      0.164179996      0.239480004    
 C3  0.470380008      0.282429993      0.272100002    
 H1  0.510720015      0.323170006      0.274179995    
 C2  0.463070005      0.247030005      0.254880011    
 C2  0.910579979      0.793879986      0.329329997    
 C3  0.845510006      0.745169997      0.328689992    
 H1  0.815620005      0.745559990      0.338290006    
 C3  0.953069985      0.793420017      0.314900011    
 H1  0.998600006      0.827620029      0.314889997    
 C4  0.820599973      0.694270015      0.314339995    
 C5  0.746070027      0.638670027      0.313540012    
 H2  0.720749974      0.654320002      0.305720001    
 H2  0.727970004      0.627979994      0.327039987    
 H2  0.742349982      0.598659992      0.307330012    
 C4  0.930299997      0.743460000      0.300159991    
 C5  0.978910029      0.744369984      0.283380002    
 H2  0.997150004      0.716000021      0.287400007    
 H2   1.54299997E-02  0.790189981      0.281379998    
 H2  0.954029977      0.727370024      0.270980000    
 C6  0.863030016      0.693710029      0.299510002    
 C6  0.838530004      0.640070021      0.283710003    
 C4  0.797379971      0.641589999      0.268440008    
 C5  0.785950005      0.700360000      0.266739994    
 H2  0.745729983      0.690909982      0.274170011    
 H2  0.780139983      0.707859993      0.252779990    
 H2  0.824699998      0.740369976      0.272199988    
 C4  0.855620027      0.589150012      0.284729987    
 C5  0.899959981      0.584339976      0.301429987    
 H2  0.947220027      0.610729992      0.297610015    
 H2  0.887899995      0.537630022      0.303270012    
 H2  0.892880023      0.601970017      0.313829988    
 C3  0.771300018      0.589940012      0.254099995    
 H1  0.744470000      0.591350019      0.243609995    
 C3  0.825219989      0.536459982      0.269609988    
 H1  0.834439993      0.500880003      0.269970000    
 C2  0.783969998      0.536930025      0.254880011    
 C2  0.877879977       8.64799991E-02  0.330089986    
 C3  0.882309973      0.147029996      0.331759989    
 H1  0.903299987      0.173409998      0.343169987    
 C3  0.848569989       4.94499989E-02  0.313100010    
 H1  0.845849991       7.37999985E-03  0.311479986    
 C4  0.857200027      0.172279999      0.317240000    
 C5  0.862529993      0.241710007      0.319099993    
 H2  0.905589998      0.276140004      0.313749999    
 H2  0.859250009      0.251190007      0.333099991    
 H2  0.826240003      0.241730005      0.311610013    
 C4  0.822830021       7.28200004E-02  0.298090011    
 C5  0.790989995       3.08699999E-02  0.278450012    
 H2  0.742510021       3.77999991E-03  0.280030012    
 H2  0.809650004       1.73999998E-03  0.275959998    
 H2  0.801159978       6.13499992E-02  0.267239988    
 C6  0.828059971      0.135519996      0.299870014    
 C6  0.801549971      0.161469996      0.283710003    
 C4  0.844219983      0.202620000      0.268440008    
 C5  0.914420009      0.214049995      0.266739994    
 H2  0.945190012      0.254269987      0.274170011    
 H2  0.927730024      0.219860002      0.252779990    
 H2  0.915679991      0.175300002      0.272199988    
 C4  0.733539999      0.144380003      0.284729987    
 C5  0.684390008      0.100040004      0.301429987    
 H2  0.663519979       5.27799986E-02  0.297610015    
 H2  0.649739981      0.112099998      0.303270012    
 H2  0.709100008      0.107120000      0.313829988    
 C3  0.818650007      0.228699997      0.254099995    
 H1  0.846889973      0.255530000      0.243609995    
 C3  0.711250007      0.174779996      0.269609988    
 H1  0.666450024      0.165560007      0.269970000    
 C2  0.752969980      0.216030002      0.254880011    
 C2  0.888170004      0.797100008      0.828320026    
 C3  0.914420009      0.757089972      0.824869990    
 H1  0.952390015      0.764270008      0.832279980    
 C3  0.833790004      0.786920011      0.817009985    
 H1  0.815249979      0.814999998      0.818960011    
 C4  0.887690008      0.705550015      0.810729980    
 C5  0.917890012      0.659929991      0.806699991    
 H2  0.953800023      0.681180000      0.796850026    
 H2  0.935970008      0.653129995      0.819069982    
 H2  0.883069992      0.616750002      0.801620007    
 C4  0.805379987      0.735949993      0.802590013    
 C5  0.744260013      0.725839972      0.789349973    
 H2  0.702449977      0.691869974      0.795400023    
 H2  0.744279981      0.768100023      0.788389981    
 H2  0.748359978      0.711199999      0.776059985    
 C6  0.833060026      0.695249975      0.799030006    
 C6  0.803590000      0.641139984      0.783389986    
 C4  0.829439998      0.654039979      0.763849974    
 C5  0.881009996      0.724290013      0.757820010    
 H2  0.925859988      0.730979979      0.759959996    
 H2  0.875389993      0.730949998      0.743770003    
 H2  0.875090003      0.756399989      0.765860021    
 C4  0.750760019      0.577419996      0.789120018    
 C5  0.720969975      0.560000002      0.810559988    
 H2  0.685090005      0.570840001      0.811800003    
 H2  0.702889979      0.512310028      0.813069999    
 H2  0.756070018      0.586179972      0.820219994    
 C3  0.802900016      0.601409972      0.749830008    
 H1  0.819389999      0.610140026      0.736580014    
 C3  0.727100015      0.525020003      0.773869991    
 H1  0.692619979      0.481420010      0.777199984    
 C2  0.752969980      0.536930025      0.754880011    
 C2  0.202900007       9.10599977E-02  0.828320026    
 C3  0.242909998      0.157319993      0.824869990    
 H1  0.235730007      0.188109994      0.832279980    
 C3  0.213080004       4.68599983E-02  0.817009985    
 H1  0.185000002       2.39999994E-04  0.818960011    
 C4  0.294450015      0.182129994      0.810729980    
 C5  0.340070009      0.257950008      0.806699991    
 H2  0.318820000      0.272610009      0.796850026    
 H2  0.346870005      0.282830000      0.819069982    
 H2  0.383249998      0.266310006      0.801620007    
 C4  0.264050007       6.94200024E-02  0.802590013    
 C5  0.274159998       1.84099991E-02  0.789349973    
 H2  0.308129996       1.05699999E-02  0.795400023    
 H2  0.231900007      0.976170003      0.788389981    
 H2  0.288800001       3.71499993E-02  0.776059985    
 C6  0.304749995      0.137799993      0.799030006    
 C6  0.359930009      0.161469996      0.783710003    
 C4  0.358410001      0.202620000      0.768440008    
 C5  0.299640000      0.214049995      0.766740024    
 H2  0.309089988      0.254269987      0.774169981    
 H2  0.292140007      0.219860002      0.752780020    
 H2  0.259629995      0.175300002      0.772199988    
 C4  0.410849988      0.144380003      0.784730017    
 C5  0.415659994      0.100040004      0.801429987    
 H2  0.389270008       5.27799986E-02  0.797609985    
 H2  0.462370008      0.112099998      0.803269982    
 H2  0.398030013      0.107120000      0.813830018    
 C3  0.410059988      0.228699997      0.754100025    
 H1  0.408650011      0.255530000      0.743610024    
 C3  0.463539988      0.174779996      0.769609988    
 H1  0.499119997      0.165560007      0.769970000    
 C2  0.463070005      0.216030002      0.754880011    
 C2  0.913519979      0.122120000      0.830089986    
 C3  0.852970004      0.117689997      0.831759989    
 H1  0.826590002       9.66999978E-02  0.843169987    
 C3  0.950550020      0.151429996      0.813099980    
 H1  0.992619991      0.154149994      0.811479986    
 C4  0.827719986      0.142800003      0.817240000    
 C5  0.758289993      0.137470007      0.819100022    
 H2  0.723860025       9.44100022E-02  0.813750029    
 H2  0.748809993      0.140750006      0.833100021    
 H2  0.758270025      0.173759997      0.811609983    
 C4  0.927179992      0.177169994      0.798089981    
 C5  0.969129980      0.209010005      0.778450012    
 H2  0.996219993      0.257490009      0.780030012    
 H2  0.998260021      0.190349996      0.775960028    
 H2  0.938650012      0.198840007      0.767239988    
 C6  0.864480019      0.171939999      0.799870014    
 C6  0.838530004      0.198449999      0.783710003    
 C4  0.797379971      0.155780002      0.768440008    
 C5  0.785950005       8.55799988E-02  0.766740024    
 H2  0.745729983       5.48099987E-02  0.774169981    
 H2  0.780139983       7.22699985E-02  0.752780020    
 H2  0.824699998       8.43200013E-02  0.772199988    
 C4  0.855620027      0.266460001      0.784730017    
 C5  0.899959981      0.315609992      0.801429987    
 H2  0.947220027      0.336479992      0.797609985    
 H2  0.887899995      0.350259990      0.803269982    
 H2  0.892880023      0.290899992      0.813830018    
 C3  0.771300018      0.181349993      0.754100025    
 H1  0.744470000      0.153109998      0.743610024    
 C3  0.825219989      0.288749993      0.769609988    
 H1  0.834439993      0.333550006      0.769970000    
 C2  0.783969998      0.247030005      0.754880011    
 C2  0.122510001      0.533420026      0.336030006    
 C3   5.73999994E-02  0.511250019      0.331779987    
 H1   4.49599996E-02  0.511489987      0.318349987    
 C3  0.139929995      0.534240007      0.355769992    
 H1  0.185379997      0.550520003      0.359109998    
 C4   7.67999981E-03  0.488079995      0.346480012    
 C5  0.933189988      0.462969989      0.341639996    
 H2  0.925440013      0.500989974      0.341450006    
 H2  0.922209978      0.441179991      0.328619987    
 H2  0.904860020      0.431019992      0.351799995    
 C4   9.17999968E-02  0.511680007      0.371050000    
 C5  0.112489998      0.514500022      0.393649995    
 H2  0.107260004      0.471350014      0.397540003    
 H2  0.159089997      0.549570024      0.395399988    
 H2   8.37299973E-02  0.524269998      0.401950002    
 C6   2.48600002E-02  0.489360005      0.366549999    
 C6  0.973049998      0.466060013      0.382860005    
 C4  0.955810010      0.510950029      0.391620010    
 C5  0.995029986      0.584460020      0.386510015    
 H2  0.973569989      0.593630016      0.375360012    
 H2  0.996169984      0.610759974      0.398009986    
 H2   4.07899991E-02  0.596469998      0.382820010    
 C4  0.941789985      0.398000002      0.388630003    
 C5  0.958019972      0.345930010      0.379249990    
 H2  0.995440006      0.346810013      0.386440009    
 H2  0.918739974      0.301220000      0.380169988    
 H2  0.970420003      0.357290000      0.365310013    
 C3  0.904839993      0.486759990      0.406170011    
 H1  0.893840015      0.517019987      0.412339985    
 C3  0.888239980      0.376379997      0.403439999    
 H1  0.865279973      0.331000000      0.407449991    
 C2  0.870270014      0.419629991      0.411780000    
 C2  0.410919994      0.877489984      0.336030006    
 C3  0.453860015      0.942600012      0.331779987    
 H1  0.466540009      0.955039978      0.318349987    
 C3  0.394320011      0.860069990      0.355769992    
 H1  0.365150005      0.814620018      0.359109998    
 C4  0.480410010      0.992320001      0.346480012    
 C5  0.529789984       6.68099970E-02  0.341639996    
 H2  0.575559974       7.45600015E-02  0.341450006    
 H2  0.518980026       7.77899995E-02  0.328619987    
 H2  0.526170015       9.51400027E-02  0.351799995    
 C4  0.419889987      0.908200026      0.371050000    
 C5  0.402020007      0.887510002      0.393649995    
 H2  0.364100009      0.892740011      0.397540003    
 H2  0.390489995      0.840910017      0.395399988    
 H2  0.440549999      0.916270018      0.401950002    
 C6  0.464509994      0.975139976      0.366549999    
 C6  0.492670000       2.14300007E-02  0.384669989    
 C4  0.450740010       3.50899994E-02  0.396660000    
 C5  0.375750005      0.994629979      0.394120008    
 H2  0.357320011      0.956640005      0.403279990    
 H2  0.356260002       2.26900000E-02  0.397020012    
 H2  0.365240008      0.978380024      0.380380005    
 C4  0.563199997       6.20899983E-02  0.385250002    
 C5  0.612010002       4.87800017E-02  0.372579992    
 H2  0.619059980       7.07499981E-02  0.359600008    
 H2  0.654829979       6.66799992E-02  0.379500002    
 H2  0.592599988       6.79999997E-04  0.370620012    
 C3  0.480190009       8.98300037E-02  0.409929991    
 H1  0.452140003       9.98599976E-02  0.417789996    
 C3  0.589959979      0.116880000      0.399760008    
 H1  0.636910021      0.144539997      0.400860012    
 C2  0.549369991      0.129730001      0.411780000    
 C2  0.441500008      0.592679977      0.345429987    
 C3  0.422030002      0.578559995      0.364670008    
 H1  0.389450014      0.588500023      0.369549990    
 C3  0.490300000      0.579360008      0.338710010    
 H1  0.505410016      0.589789987      0.325379997    
 C4  0.448300004      0.549950004      0.377649993    
 C5  0.426259995      0.534060001      0.399690002    
 H2  0.453299999      0.573809981      0.407849997    
 H2  0.379079998      0.521040022      0.400880009    
 H2  0.432559997      0.497420013      0.404289991    
 C4  0.518299997      0.550870001      0.351209998    
 C5  0.575410008      0.537460029      0.343529999    
 H2  0.555519998      0.491270006      0.338900000    
 H2  0.599579990      0.568040013      0.332599998    
 H2  0.606379986      0.544759989      0.354400009    
 C6  0.498279989      0.536920011      0.371060014    
 C6  0.528770030      0.507330000      0.384669989    
 C4  0.584360003      0.549260020      0.396660000    
 C5  0.618889987      0.624249995      0.394120008    
 H2  0.599330008      0.642679989      0.403279990    
 H2  0.666440010      0.643739998      0.397020012    
 H2  0.613150001      0.634760022      0.380380005    
 C4  0.498899996      0.436800003      0.385250002    
 C5  0.436780006      0.387989998      0.372579992    
 H2  0.451700002      0.380939990      0.359600008    
 H2  0.411859989      0.345169991      0.379500002    
 H2  0.408089995      0.407400012      0.370620012    
 C3  0.609650016      0.519810021      0.409929991    
 H1  0.647729993      0.547860026      0.417789996    
 C3  0.526929975      0.410039991      0.399760008    
 H1  0.507640004      0.363090008      0.400860012    
 C2  0.580370009      0.450630009      0.411780000    
 C2  0.111830004      0.202900007      0.171680003    
 C3   8.55799988E-02  0.242909998      0.175129995    
 H1   4.76099998E-02  0.235730007      0.167720005    
 C3  0.166209996      0.213080004      0.182990000    
 H1  0.184750006      0.185000002      0.181040004    
 C4  0.112310000      0.294450015      0.189270005    
 C5   8.21100026E-02  0.340070009      0.193299994    
 H2   4.61999997E-02  0.318820000      0.203150004    
 H2   6.40299991E-02  0.346870005      0.180930004    
 H2  0.116930000      0.383249998      0.198379993    
 C4  0.194619998      0.264050007      0.197410002    
 C5  0.255739987      0.274159998      0.210649997    
 H2  0.297549993      0.308129996      0.204600006    
 H2  0.255719990      0.231900007      0.211610004    
 H2  0.251639992      0.288800001      0.223940000    
 C6  0.166940004      0.304749995      0.200969994    
 C6  0.196410000      0.358859986      0.216610000    
 C4  0.170560002      0.345959991      0.236149997    
 C5  0.118989997      0.275709987      0.242180005    
 H2   7.41399974E-02  0.269019991      0.240040004    
 H2  0.124609999      0.269050002      0.256229997    
 H2  0.124909997      0.243599996      0.234139994    
 C4  0.249239996      0.422580004      0.210879996    
 C5  0.279029995      0.439999998      0.189439997    
 H2  0.314909995      0.429159999      0.188199997    
 H2  0.297109991      0.487690002      0.186930001    
 H2  0.243929997      0.413819999      0.179780006    
 C3  0.197099999      0.398589998      0.250169992    
 H1  0.180610001      0.389860004      0.263419986    
 C3  0.272899985      0.474979997      0.226129994    
 H1  0.307379991      0.518580019      0.222800002    
 C2  0.247030005      0.463070005      0.245120004    
 C2  0.797100008      0.908940017      0.171680003    
 C3  0.757089972      0.842679977      0.175129995    
 H1  0.764270008      0.811890006      0.167720005    
 C3  0.786920011      0.953140020      0.182990000    
 H1  0.814999998      0.999759972      0.181040004    
 C4  0.705550015      0.817870021      0.189270005    
 C5  0.659929991      0.742049992      0.193299994    
 H2  0.681180000      0.727389991      0.203150004    
 H2  0.653129995      0.717170000      0.180930004    
 H2  0.616750002      0.733690023      0.198379993    
 C4  0.735949993      0.930580020      0.197410002    
 C5  0.725839972      0.981589973      0.210649997    
 H2  0.691869974      0.989430010      0.204600006    
 H2  0.768100023       2.38300003E-02  0.211610004    
 H2  0.711199999      0.962849975      0.223940000    
 C6  0.695249975      0.862200022      0.200969994    
 C6  0.641139984      0.837559998      0.216610000    
 C4  0.654039979      0.824609995      0.236149997    
 C5  0.724290013      0.843289971      0.242180005    
 H2  0.730979979      0.805130005      0.240040004    
 H2  0.730949998      0.855570018      0.256229997    
 H2  0.756399989      0.881320000      0.234139994    
 C4  0.577419996      0.826669991      0.210879996    
 C5  0.560000002      0.839039981      0.189439997    
 H2  0.570840001      0.885760009      0.188199997    
 H2  0.512310028      0.809430003      0.186930001    
 H2  0.586179972      0.830120027      0.179780006    
 C3  0.601409972      0.798520029      0.250169992    
 H1  0.610140026      0.790759981      0.263419986    
 C3  0.525020003      0.797930002      0.226129994    
 H1  0.481420010      0.788810015      0.222800002    
 C2  0.536930025      0.783969998      0.245120004    
 C2   9.10599977E-02  0.888170004      0.171680003    
 C3  0.157319993      0.914420009      0.175129995    
 H1  0.188109994      0.952390015      0.167720005    
 C3   4.68599983E-02  0.833790004      0.182990000    
 H1   2.39999994E-04  0.815249979      0.181040004    
 C4  0.182129994      0.887690008      0.189270005    
 C5  0.257950008      0.917890012      0.193299994    
 H2  0.272610009      0.953800023      0.203150004    
 H2  0.282830000      0.935970008      0.180930004    
 H2  0.266310006      0.883069992      0.198379993    
 C4   6.94200024E-02  0.805379987      0.197410002    
 C5   1.84099991E-02  0.744260013      0.210649997    
 H2   1.05699999E-02  0.702449977      0.204600006    
 H2  0.976170003      0.744279981      0.211610004    
 H2   3.71499993E-02  0.748359978      0.223940000    
 C6  0.137799993      0.833060026      0.200969994    
 C6  0.162440002      0.803590000      0.216610000    
 C4  0.175390005      0.829439998      0.236149997    
 C5  0.156709999      0.881009996      0.242180005    
 H2  0.194869995      0.925859988      0.240040004    
 H2  0.144429997      0.875389993      0.256229997    
 H2  0.118680000      0.875090003      0.234139994    
 C4  0.173329994      0.750760019      0.210879996    
 C5  0.160960004      0.720969975      0.189439997    
 H2  0.114239998      0.685090005      0.188199997    
 H2  0.190569997      0.702889979      0.186930001    
 H2  0.169880003      0.756070018      0.179780006    
 C3  0.201480001      0.802900016      0.250169992    
 H1  0.209240004      0.819389999      0.263419986    
 C3  0.202069998      0.727100015      0.226129994    
 H1  0.211190000      0.692619979      0.222800002    
 C2  0.216030002      0.752969980      0.245120004    
 C2  0.872780025      0.450029999      0.662670016    
 C3  0.921490014      0.433670014      0.662029982    
 H1  0.921100020      0.403389990      0.671630025    
 C3  0.873239994      0.492980003      0.648239970    
 H1  0.839039981      0.504310012      0.648230016    
 C4  0.972389996      0.459659994      0.647679985    
 C5   2.79900003E-02  0.440730006      0.646879971    
 H2   1.23399999E-02  0.399760008      0.639060020    
 H2   3.86799984E-02  0.433319986      0.660380006    
 H2   6.80000037E-02  0.477019995      0.640670002    
 C4  0.923200011      0.520169973      0.633499980    
 C5  0.922290027      0.567870021      0.616720021    
 H2  0.950659990      0.614480019      0.620739996    
 H2  0.876470029      0.558570027      0.614719987    
 H2  0.939289987      0.559989989      0.604319990    
 C6  0.972949982      0.502650023      0.632849991    
 C6   2.61300001E-02  0.530719995      0.616919994    
 C4   1.77500006E-02  0.494830012      0.599139988    
 C5  0.951969981      0.432260007      0.594869971    
 H2  0.953610003      0.393220007      0.599770010    
 H2  0.943960011      0.427969992      0.580560029    
 H2  0.915769994      0.435189992      0.601559997    
 C4   8.45799968E-02  0.592859983      0.620639980    
 C5   9.70200002E-02  0.634159982      0.640139997    
 H2   7.80899972E-02  0.663689971      0.638719976    
 H2  0.145089999      0.661080003      0.642600000    
 H2   7.54100010E-02  0.603670001      0.651279986    
 C3   6.98700026E-02  0.520959973      0.584949970    
 H1   6.39899969E-02  0.497520000      0.572820008    
 C3  0.137040004      0.615769982      0.605440021    
 H1  0.177379996      0.656509995      0.607519984    
 C2  0.129730001      0.580370009      0.588220000    
 C2  0.577239990      0.127220005      0.662670016    
 C3  0.512170017       7.85100013E-02  0.662029982    
 H1  0.482279986       7.89000019E-02  0.671630025    
 C3  0.619729996      0.126760006      0.648239970    
 H1  0.665260017      0.160960004      0.648230016    
 C4  0.487260014       2.76100002E-02  0.647679985    
 C5  0.412730008      0.972010016      0.646879971    
 H2  0.387410015      0.987659991      0.639060020    
 H2  0.394630015      0.961319983      0.660380006    
 H2  0.409009993      0.931999981      0.640670002    
 C4  0.596960008       7.68000036E-02  0.633499980    
 C5  0.645569980       7.77100027E-02  0.616720021    
 H2  0.663810015       4.93399985E-02  0.620739996    
 H2  0.682089984      0.123530000      0.614719987    
 H2  0.620689988       6.07100017E-02  0.604319990    
 C6  0.529690027       2.70499997E-02  0.632849991    
 C6  0.504220009      0.974479973      0.616729975    
 C4  0.491270006      0.987380028      0.597190022    
 C5  0.509949982       5.76299988E-02  0.591159999    
 H2  0.471789986       6.43199980E-02  0.593299985    
 H2  0.522230029       6.42900020E-02  0.577109993    
 H2  0.547980011       8.97400007E-02  0.599200010    
 C4  0.493330002      0.910759985      0.622460008    
 C5  0.505699992      0.893339992      0.643899977    
 H2  0.552420020      0.904179990      0.645139992    
 H2  0.476090014      0.845650017      0.646409988    
 H2  0.496780008      0.919520020      0.653559983    
 C3  0.465180010      0.934750021      0.583169997    
 H1  0.457419991      0.943480015      0.569920003    
 C3  0.464590013      0.858359993      0.607209980    
 H1  0.455469996      0.814760029      0.610539973    
 C2  0.450630009      0.870270014      0.588220000    
 C2  0.554830015      0.424400002      0.661660016    
 C3  0.581080019      0.490660012      0.658209980    
 H1  0.619050026      0.521449983      0.665620029    
 C3  0.500450015      0.380199999      0.650349975    
 H1  0.481909990      0.333579987      0.652300000    
 C4  0.554350019      0.515470028      0.644070029    
 C5  0.584550023      0.591289997      0.640039980    
 H2  0.620459974      0.605949998      0.630190015    
 H2  0.602630019      0.616169989      0.652409971    
 H2  0.549730003      0.599650025      0.634959996    
 C4  0.472039998      0.402759999      0.635930002    
 C5  0.410919994      0.351749986      0.622690022    
 H2  0.369109988      0.343910009      0.628740013    
 H2  0.410939991      0.309509993      0.621730030    
 H2  0.415019989      0.370490015      0.609399974    
 C6  0.499720007      0.471139997      0.632369995    
 C6  0.470250010      0.495779991      0.616729975    
 C4  0.496100008      0.508729994      0.597190022    
 C5  0.547670007      0.490049988      0.591159999    
 H2  0.592519999      0.528209984      0.593299985    
 H2  0.542050004      0.477770001      0.577109993    
 H2  0.541750014      0.452019989      0.599200010    
 C4  0.417420000      0.506669998      0.622460008    
 C5  0.387629986      0.494300008      0.643899977    
 H2  0.351749986      0.447580010      0.645139992    
 H2  0.369549990      0.523909986      0.646409988    
 H2  0.422729999      0.503220022      0.653559983    
 C3  0.469559997      0.534820020      0.583169997    
 H1  0.486050010      0.542580009      0.569920003    
 C3  0.393759996      0.535409987      0.607209980    
 H1  0.359279990      0.544529974      0.610539973    
 C2  0.419629991      0.549369991      0.588220000    
 C2  0.528500021      0.122950003      0.163719997    
 C3  0.493449986       5.68399988E-02  0.168060005    
 H1  0.483639985       4.36099991E-02  0.181559995    
 C3  0.543760002      0.141210005      0.143979996    
 H1  0.569119990      0.187179998      0.140640005    
 C4  0.471230000       7.18999980E-03  0.153349996    
 C5  0.431360006      0.931509972      0.158309996    
 H2  0.462579995      0.915530026      0.161210001    
 H2  0.402990013      0.924250007      0.169909999    
 H2  0.403430015      0.906920016      0.146939993    
 C4  0.522710025       9.31499973E-02  0.128710002    
 C5  0.541949987      0.114500001      0.106210001    
 H2  0.505639970      0.117339998       9.96700004E-02
 H2  0.582960010      0.158010006      0.105630003    
 H2  0.549049973       8.11700001E-02   9.94300023E-02
 C6  0.487010002       2.51000002E-02  0.133320004    
 C6  0.465130001      0.973160028      0.117080003    
 C4  0.505289972      0.945320010      0.111890003    
 C5  0.574259996      0.973309994      0.120779999    
 H2  0.571590006      0.948469996      0.132860005    
 H2  0.603659987      0.969039977      0.111210003    
 H2  0.592109978       2.06400007E-02  0.124040000    
 C4  0.402889997      0.952690005      0.107699998    
 C5  0.355940014      0.980899990      0.113049999    
 H2  0.368449986       2.11500004E-02  0.105120003    
 H2  0.309579998      0.947189987      0.110179998    
 H2  0.360630006      0.992410004      0.127169997    
 C3  0.481840014      0.894519985       9.72900018E-02
 H1  0.509190023      0.876399994       9.35200006E-02
 C3  0.381260008      0.898580015       9.30899978E-02
 H1  0.339419991      0.882629991       8.67300034E-02
 C2  0.419629991      0.870270014       8.82200003E-02
 C2  0.877049983      0.405559987      0.163719997    
 C3  0.943159997      0.436619997      0.168060005    
 H1  0.956390023      0.440039992      0.181559995    
 C3  0.858789980      0.402559996      0.143979996    
 H1  0.812820017      0.381949991      0.140640005    
 C4  0.992810011      0.464049995      0.153349996    
 C5   6.84899986E-02  0.499859989      0.158309996    
 H2   8.44699964E-02  0.547060013      0.161210001    
 H2   7.57500008E-02  0.478749990      0.169909999    
 H2   9.30799991E-02  0.496520013      0.146939993    
 C4  0.906849980      0.429569989      0.128710002    
 C5  0.885500014      0.427460015      0.106210001    
 H2  0.882659972      0.388309985       9.96700004E-02
 H2  0.841989994      0.424959987      0.105630003    
 H2  0.918829978      0.467889994       9.94300023E-02
 C6  0.974900007      0.461919993      0.133320004    
 C6   2.69499999E-02  0.493019998      0.117140003    
 C4   4.41900007E-02  0.555149972      0.108379997    
 C5   4.97000013E-03  0.589439988      0.113490000    
 H2   2.64299996E-02  0.620069981      0.124640003    
 H2   3.83000006E-03  0.614600003      0.101989999    
 H2  0.959209979      0.555689991      0.117179997    
 C4   5.82100004E-02  0.456220001      0.111369997    
 C5   4.19799984E-02  0.387919992      0.120750003    
 H2   4.55999980E-03  0.351379991      0.113559999    
 H2   8.12600031E-02  0.382490009      0.119829997    
 H2   2.95800008E-02  0.386880010      0.134690002    
 C3   9.51600000E-02  0.581929982       9.38299969E-02
 H1  0.106160000      0.623189986       8.76599997E-02
 C3  0.111759998      0.488150001       9.65600014E-02
 H1  0.134719998      0.465730011       9.25500020E-02
 C2  0.129730001      0.549369991       8.82200003E-02
 C2  0.589079976      0.466580003      0.163969994    
 C3  0.546140015      0.488750011      0.168219998    
 H1  0.533460021      0.488510013      0.181649998    
 C3  0.605679989      0.465759993      0.144229993    
 H1  0.634850025      0.449479997      0.140890002    
 C4  0.519590020      0.511919975      0.153520003    
 C5  0.470209986      0.537029982      0.158360004    
 H2  0.424439996      0.499009997      0.158549994    
 H2  0.481020004      0.558820009      0.171379998    
 H2  0.473830014      0.568979979      0.148200005    
 C4  0.580110013      0.488319993      0.128950000    
 C5  0.597980022      0.485500008      0.106349997    
 H2  0.635900021      0.528649986      0.102459997    
 H2  0.609510005      0.450430006      0.104599997    
 H2  0.559449971      0.475730002       9.80499983E-02
 C6  0.535489976      0.510640025      0.133450001    
 C6  0.506980002      0.533940017      0.117140003    
 C4  0.444849998      0.489050001      0.108379997    
 C5  0.410560012      0.415540010      0.113490000    
 H2  0.379929990      0.406370014      0.124640003    
 H2  0.385399997      0.389239997      0.101989999    
 H2  0.444310009      0.403530002      0.117179997    
 C4  0.543780029      0.601999998      0.111369997    
 C5  0.612079978      0.654070020      0.120750003    
 H2  0.648620009      0.653190017      0.113559999    
 H2  0.617510021      0.698780000      0.119829997    
 H2  0.613120019      0.642709970      0.134690002    
 C3  0.418069988      0.513239980       9.38299969E-02
 H1  0.376810014      0.482980013       8.76599997E-02
 C3  0.511849999      0.623619974       9.65600014E-02
 H1  0.534269989      0.669000030       9.25500020E-02
 C2  0.450630009      0.580370009       8.82200003E-02
 C2  0.793879986      0.883310020      0.670669973    
 C3  0.745169997      0.899670005      0.671310008    
 H1  0.745559990      0.929949999      0.661710024    
 C3  0.793420017      0.840359986      0.685100019    
 H1  0.827620029      0.829029977      0.685109973    
 C4  0.694270015      0.873679996      0.685660005    
 C5  0.638670027      0.892610013      0.686460018    
 H2  0.654320002      0.933579981      0.694280028    
 H2  0.627979994      0.900020003      0.672959983    
 H2  0.598659992      0.856320024      0.692669988    
 C4  0.743460000      0.813170016      0.699840009    
 C5  0.744369984      0.765470028      0.716620028    
 H2  0.716000021      0.718859971      0.712599993    
 H2  0.790189981      0.774770021      0.718620002    
 H2  0.727370024      0.773350000      0.729020000    
 C6  0.693710029      0.830690026      0.700489998    
 C6  0.640529990      0.802619994      0.716419995    
 C4  0.648909986      0.838509977      0.734200001    
 C5  0.714690030      0.901080012      0.738470018    
 H2  0.713050008      0.940119982      0.733569980    
 H2  0.722700000      0.905369997      0.752780020    
 H2  0.750890017      0.898150027      0.731779993    
 C4  0.582080007      0.740480006      0.712700009    
 C5  0.569639981      0.699180007      0.693199992    
 H2  0.588569999      0.669650018      0.694620013    
 H2  0.521570027      0.672259986      0.690739989    
 H2  0.591250002      0.729669988      0.682060003    
 C3  0.596790016      0.812380016      0.748390019    
 H1  0.602670014      0.835820019      0.760519981    
 C3  0.529619992      0.717570007      0.727900028    
 H1  0.489279985      0.676829994      0.725820005    
 C2  0.536930025      0.752969980      0.745119989    
 C2   8.94199982E-02  0.206119999      0.670669973    
 C3  0.154489994      0.254830003      0.671310008    
 H1  0.184379995      0.254440010      0.661710024    
 C3   4.69300002E-02  0.206579998      0.685100019    
 H1   1.39999995E-03  0.172380000      0.685109973    
 C4  0.179399997      0.305729985      0.685660005    
 C5  0.253930002      0.361330003      0.686460018    
 H2  0.279249996      0.345679998      0.694280028    
 H2  0.272029996      0.372020006      0.672959983    
 H2  0.257649988      0.401340008      0.692669988    
 C4   6.97000027E-02  0.256540000      0.699840009    
 C5   2.10900009E-02  0.255629987      0.716620028    
 H2   2.85000005E-03  0.284000009      0.712599993    
 H2  0.984570026      0.209810004      0.718620002    
 H2   4.59700003E-02  0.272630006      0.729020000    
 C6  0.136969998      0.306290001      0.700489998    
 C6  0.161469996      0.359930009      0.716289997    
 C4  0.202620000      0.358410001      0.731559992    
 C5  0.214049995      0.299640000      0.733259976    
 H2  0.254269987      0.309089988      0.725830019    
 H2  0.219860002      0.292140007      0.747219980    
 H2  0.175300002      0.259629995      0.727800012    
 C4  0.144380003      0.410849988      0.715269983    
 C5  0.100040004      0.415659994      0.698570013    
 H2   5.27799986E-02  0.389270008      0.702390015    
 H2  0.112099998      0.462370008      0.696730018    
 H2  0.107120000      0.398030013      0.686169982    
 C3  0.228699997      0.410059988      0.745899975    
 H1  0.255530000      0.408650011      0.756389976    
 C3  0.174779996      0.463539988      0.730390012    
 H1  0.165560007      0.499119997      0.730030000    
 C2  0.216030002      0.463070005      0.745119989    
 C2  0.122120000      0.913519979      0.669910014    
 C3  0.117689997      0.852970004      0.668240011    
 H1   9.66999978E-02  0.826590002      0.656830013    
 C3  0.151429996      0.950550020      0.686900020    
 H1  0.154149994      0.992619991      0.688520014    
 C4  0.142800003      0.827719986      0.682760000    
 C5  0.137470007      0.758289993      0.680899978    
 H2   9.44100022E-02  0.723860025      0.686249971    
 H2  0.140750006      0.748809993      0.666899979    
 H2  0.173759997      0.758270025      0.688390017    
 C4  0.177169994      0.927179992      0.701910019    
 C5  0.209010005      0.969129980      0.721549988    
 H2  0.257490009      0.996219993      0.719969988    
 H2  0.190349996      0.998260021      0.724039972    
 H2  0.198840007      0.938650012      0.732760012    
 C6  0.171939999      0.864480019      0.700129986    
 C6  0.198449999      0.838530004      0.716289997    
 C4  0.155780002      0.797379971      0.731559992    
 C5   8.55799988E-02  0.785950005      0.733259976    
 H2   5.48099987E-02  0.745729983      0.725830019    
 H2   7.22699985E-02  0.780139983      0.747219980    
 H2   8.43200013E-02  0.824699998      0.727800012    
 C4  0.266460001      0.855620027      0.715269983    
 C5  0.315609992      0.899959981      0.698570013    
 H2  0.336479992      0.947220027      0.702390015    
 H2  0.350259990      0.887899995      0.696730018    
 H2  0.290899992      0.892880023      0.686169982    
 C3  0.181349993      0.771300018      0.745899975    
 H1  0.153109998      0.744470000      0.756389976    
 C3  0.288749993      0.825219989      0.730390012    
 H1  0.333550006      0.834439993      0.730030000    
 C2  0.247030005      0.783969998      0.745119989    
