data_IRMOF10_SG202_interpen_Ligand1lp_label_j.

_audit_creation_method             'generated by an auxiliary program of Tobunporous'

_symmetry_space_group_name_H-M     'P 1'
_symmetry_Int_Tables_number        1
_symmetry_cell_setting             triclinic

_cell_length_a                    34.2800
_cell_length_b                    34.2800
_cell_length_c                    34.2800
_cell_angle_alpha                 90.0000
_cell_angle_beta                  90.0000
_cell_angle_gamma                 90.0000

loop_
_atom_site_label
_atom_site_fract_x
_atom_site_fract_y
_atom_site_fract_z
_atom_site_occupancy
O1       0.75000    0.75000    0.75000   1.00
Zn1      0.71720    0.78280    0.78280   1.00
Zn1      0.78280    0.71720    0.78280   1.00
Zn1      0.78280    0.78280    0.71720   1.00
Zn1      0.71720    0.71720    0.71720   1.00
O2       0.72650    0.77350    0.83820   1.00
O2       0.72650    0.83820    0.77350   1.00
O2       0.66180    0.77350    0.77350   1.00
O2       0.77350    0.72650    0.83820   1.00
O2       0.83820    0.72650    0.77350   1.00
O2       0.77350    0.66180    0.77350   1.00
O2       0.77350    0.83820    0.72650   1.00
O2       0.83820    0.77350    0.72650   1.00
O2       0.77350    0.77350    0.66180   1.00
O2       0.66180    0.72650    0.72650   1.00
O2       0.72650    0.66180    0.72650   1.00
O2       0.72650    0.72650    0.66180   1.00
C1       0.75000    0.75000    0.85520   1.00
C1       0.75000    0.85520    0.75000   1.00
C1       0.64480    0.75000    0.75000   1.00
C1       0.85520    0.75000    0.75000   1.00
C1       0.75000    0.64480    0.75000   1.00
C1       0.75000    0.75000    0.64480   1.00
O1       0.25000    0.25000    0.75000   1.00
Zn1      0.21720    0.28280    0.78280   1.00
Zn1      0.28280    0.21720    0.78280   1.00
Zn1      0.28280    0.28280    0.71720   1.00
Zn1      0.21720    0.21720    0.71720   1.00
O2       0.22650    0.27350    0.83820   1.00
O2       0.22650    0.33820    0.77350   1.00
O2       0.16180    0.27350    0.77350   1.00
O2       0.27350    0.22650    0.83820   1.00
O2       0.33820    0.22650    0.77350   1.00
O2       0.27350    0.16180    0.77350   1.00
O2       0.27350    0.33820    0.72650   1.00
O2       0.33820    0.27350    0.72650   1.00
O2       0.27350    0.27350    0.66180   1.00
O2       0.16180    0.22650    0.72650   1.00
O2       0.22650    0.16180    0.72650   1.00
O2       0.22650    0.22650    0.66180   1.00
C1       0.25000    0.25000    0.85520   1.00
C1       0.25000    0.35520    0.75000   1.00
C1       0.14480    0.25000    0.75000   1.00
C1       0.35520    0.25000    0.75000   1.00
C1       0.25000    0.14480    0.75000   1.00
C1       0.25000    0.25000    0.64480   1.00
O1       0.25000    0.75000    0.25000   1.00
Zn1      0.21720    0.78280    0.28280   1.00
Zn1      0.28280    0.71720    0.28280   1.00
Zn1      0.28280    0.78280    0.21720   1.00
Zn1      0.21720    0.71720    0.21720   1.00
O2       0.22650    0.77350    0.33820   1.00
O2       0.22650    0.83820    0.27350   1.00
O2       0.16180    0.77350    0.27350   1.00
O2       0.27350    0.72650    0.33820   1.00
O2       0.33820    0.72650    0.27350   1.00
O2       0.27350    0.66180    0.27350   1.00
O2       0.27350    0.83820    0.22650   1.00
O2       0.33820    0.77350    0.22650   1.00
O2       0.27350    0.77350    0.16180   1.00
O2       0.16180    0.72650    0.22650   1.00
O2       0.22650    0.66180    0.22650   1.00
O2       0.22650    0.72650    0.16180   1.00
C1       0.25000    0.75000    0.35520   1.00
C1       0.25000    0.85520    0.25000   1.00
C1       0.14480    0.75000    0.25000   1.00
C1       0.35520    0.75000    0.25000   1.00
C1       0.25000    0.64480    0.25000   1.00
C1       0.25000    0.75000    0.14480   1.00
O1       0.75000    0.25000    0.25000   1.00
Zn1      0.71720    0.28280    0.28280   1.00
Zn1      0.78280    0.21720    0.28280   1.00
Zn1      0.78280    0.28280    0.21720   1.00
Zn1      0.71720    0.21720    0.21720   1.00
O2       0.72650    0.27350    0.33820   1.00
O2       0.72650    0.33820    0.27350   1.00
O2       0.66180    0.27350    0.27350   1.00
O2       0.77350    0.22650    0.33820   1.00
O2       0.83820    0.22650    0.27350   1.00
O2       0.77350    0.16180    0.27350   1.00
O2       0.77350    0.33820    0.22650   1.00
O2       0.83820    0.27350    0.22650   1.00
O2       0.77350    0.27350    0.16180   1.00
O2       0.66180    0.22650    0.22650   1.00
O2       0.72650    0.16180    0.22650   1.00
O2       0.72650    0.22650    0.16180   1.00
C1       0.75000    0.25000    0.35520   1.00
C1       0.75000    0.35520    0.25000   1.00
C1       0.64480    0.25000    0.25000   1.00
C1       0.85520    0.25000    0.25000   1.00
C1       0.75000    0.14480    0.25000   1.00
C1       0.75000    0.25000    0.14480   1.00
O1       0.25000    0.25000    0.25000   1.00
Zn1      0.28280    0.21720    0.21720   1.00
Zn1      0.21720    0.28280    0.21720   1.00
Zn1      0.21720    0.21720    0.28280   1.00
Zn1      0.28280    0.28280    0.28280   1.00
O2       0.27350    0.22650    0.16180   1.00
O2       0.27350    0.16180    0.22650   1.00
O2       0.33820    0.22650    0.22650   1.00
O2       0.22650    0.27350    0.16180   1.00
O2       0.16180    0.27350    0.22650   1.00
O2       0.22650    0.33820    0.22650   1.00
O2       0.22650    0.16180    0.27350   1.00
O2       0.16180    0.22650    0.27350   1.00
O2       0.22650    0.22650    0.33820   1.00
O2       0.33820    0.27350    0.27350   1.00
O2       0.27350    0.33820    0.27350   1.00
O2       0.27350    0.27350    0.33820   1.00
C1       0.25000    0.25000    0.14480   1.00
C1       0.25000    0.14480    0.25000   1.00
C1       0.35520    0.25000    0.25000   1.00
C1       0.14480    0.25000    0.25000   1.00
C1       0.25000    0.35520    0.25000   1.00
C1       0.25000    0.25000    0.35520   1.00
O1       0.75000    0.75000    0.25000   1.00
Zn1      0.78280    0.71720    0.21720   1.00
Zn1      0.71720    0.78280    0.21720   1.00
Zn1      0.71720    0.71720    0.28280   1.00
Zn1      0.78280    0.78280    0.28280   1.00
O2       0.77350    0.72650    0.16180   1.00
O2       0.77350    0.66180    0.22650   1.00
O2       0.83820    0.72650    0.22650   1.00
O2       0.72650    0.77350    0.16180   1.00
O2       0.66180    0.77350    0.22650   1.00
O2       0.72650    0.83820    0.22650   1.00
O2       0.72650    0.66180    0.27350   1.00
O2       0.66180    0.72650    0.27350   1.00
O2       0.72650    0.72650    0.33820   1.00
O2       0.83820    0.77350    0.27350   1.00
O2       0.77350    0.83820    0.27350   1.00
O2       0.77350    0.77350    0.33820   1.00
C1       0.75000    0.75000    0.14480   1.00
C1       0.75000    0.64480    0.25000   1.00
C1       0.85520    0.75000    0.25000   1.00
C1       0.64480    0.75000    0.25000   1.00
C1       0.75000    0.85520    0.25000   1.00
C1       0.75000    0.75000    0.35520   1.00
O1       0.75000    0.25000    0.75000   1.00
Zn1      0.78280    0.21720    0.71720   1.00
Zn1      0.71720    0.28280    0.71720   1.00
Zn1      0.71720    0.21720    0.78280   1.00
Zn1      0.78280    0.28280    0.78280   1.00
O2       0.77350    0.22650    0.66180   1.00
O2       0.77350    0.16180    0.72650   1.00
O2       0.83820    0.22650    0.72650   1.00
O2       0.72650    0.27350    0.66180   1.00
O2       0.66180    0.27350    0.72650   1.00
O2       0.72650    0.33820    0.72650   1.00
O2       0.72650    0.16180    0.77350   1.00
O2       0.66180    0.22650    0.77350   1.00
O2       0.72650    0.22650    0.83820   1.00
O2       0.83820    0.27350    0.77350   1.00
O2       0.77350    0.33820    0.77350   1.00
O2       0.77350    0.27350    0.83820   1.00
C1       0.75000    0.25000    0.64480   1.00
C1       0.75000    0.14480    0.75000   1.00
C1       0.85520    0.25000    0.75000   1.00
C1       0.64480    0.25000    0.75000   1.00
C1       0.75000    0.35520    0.75000   1.00
C1       0.75000    0.25000    0.85520   1.00
O1       0.25000    0.75000    0.75000   1.00
Zn1      0.28280    0.71720    0.71720   1.00
Zn1      0.21720    0.78280    0.71720   1.00
Zn1      0.21720    0.71720    0.78280   1.00
Zn1      0.28280    0.78280    0.78280   1.00
O2       0.27350    0.72650    0.66180   1.00
O2       0.27350    0.66180    0.72650   1.00
O2       0.33820    0.72650    0.72650   1.00
O2       0.22650    0.77350    0.66180   1.00
O2       0.16180    0.77350    0.72650   1.00
O2       0.22650    0.83820    0.72650   1.00
O2       0.22650    0.66180    0.77350   1.00
O2       0.16180    0.72650    0.77350   1.00
O2       0.22650    0.72650    0.83820   1.00
O2       0.33820    0.77350    0.77350   1.00
O2       0.27350    0.83820    0.77350   1.00
O2       0.27350    0.77350    0.83820   1.00
C1       0.25000    0.75000    0.64480   1.00
C1       0.25000    0.64480    0.75000   1.00
C1       0.35520    0.75000    0.75000   1.00
C1       0.14480    0.75000    0.75000   1.00
C1       0.25000    0.85520    0.75000   1.00
C1       0.25000    0.75000    0.85520   1.00
O1       1.00000    1.00000    1.00000   1.00
Zn1      0.96720    1.03280    1.03280   1.00
Zn1      1.03280    0.96720    1.03280   1.00
Zn1      1.03280    1.03280    0.96720   1.00
Zn1      0.96720    0.96720    0.96720   1.00
O2       0.97650    1.02350    1.08820   1.00
O2       0.97650    1.08820    1.02350   1.00
O2       0.91180    1.02350    1.02350   1.00
O2       1.02350    0.97650    1.08820   1.00
O2       1.08820    0.97650    1.02350   1.00
O2       1.02350    0.91180    1.02350   1.00
O2       1.02350    1.08820    0.97650   1.00
O2       1.08820    1.02350    0.97650   1.00
O2       1.02350    1.02350    0.91180   1.00
O2       0.91180    0.97650    0.97650   1.00
O2       0.97650    0.91180    0.97650   1.00
O2       0.97650    0.97650    0.91180   1.00
C1       1.00000    1.00000    1.10520   1.00
C1       1.00000    1.10520    1.00000   1.00
C1       0.89480    1.00000    1.00000   1.00
C1       1.10520    1.00000    1.00000   1.00
C1       1.00000    0.89480    1.00000   1.00
C1       1.00000    1.00000    0.89480   1.00
O1       0.50000    0.50000    1.00000   1.00
Zn1      0.46720    0.53280    1.03280   1.00
Zn1      0.53280    0.46720    1.03280   1.00
Zn1      0.53280    0.53280    0.96720   1.00
Zn1      0.46720    0.46720    0.96720   1.00
O2       0.47650    0.52350    1.08820   1.00
O2       0.47650    0.58820    1.02350   1.00
O2       0.41180    0.52350    1.02350   1.00
O2       0.52350    0.47650    1.08820   1.00
O2       0.58820    0.47650    1.02350   1.00
O2       0.52350    0.41180    1.02350   1.00
O2       0.52350    0.58820    0.97650   1.00
O2       0.58820    0.52350    0.97650   1.00
O2       0.52350    0.52350    0.91180   1.00
O2       0.41180    0.47650    0.97650   1.00
O2       0.47650    0.41180    0.97650   1.00
O2       0.47650    0.47650    0.91180   1.00
C1       0.50000    0.50000    1.10520   1.00
C1       0.50000    0.60520    1.00000   1.00
C1       0.39480    0.50000    1.00000   1.00
C1       0.60520    0.50000    1.00000   1.00
C1       0.50000    0.39480    1.00000   1.00
C1       0.50000    0.50000    0.89480   1.00
O1       0.50000    1.00000    0.50000   1.00
Zn1      0.46720    1.03280    0.53280   1.00
Zn1      0.53280    0.96720    0.53280   1.00
Zn1      0.53280    1.03280    0.46720   1.00
Zn1      0.46720    0.96720    0.46720   1.00
O2       0.47650    1.02350    0.58820   1.00
O2       0.47650    1.08820    0.52350   1.00
O2       0.41180    1.02350    0.52350   1.00
O2       0.52350    0.97650    0.58820   1.00
O2       0.58820    0.97650    0.52350   1.00
O2       0.52350    0.91180    0.52350   1.00
O2       0.52350    1.08820    0.47650   1.00
O2       0.58820    1.02350    0.47650   1.00
O2       0.52350    1.02350    0.41180   1.00
O2       0.41180    0.97650    0.47650   1.00
O2       0.47650    0.91180    0.47650   1.00
O2       0.47650    0.97650    0.41180   1.00
C1       0.50000    1.00000    0.60520   1.00
C1       0.50000    1.10520    0.50000   1.00
C1       0.39480    1.00000    0.50000   1.00
C1       0.60520    1.00000    0.50000   1.00
C1       0.50000    0.89480    0.50000   1.00
C1       0.50000    1.00000    0.39480   1.00
O1       1.00000    0.50000    0.50000   1.00
Zn1      0.96720    0.53280    0.53280   1.00
Zn1      1.03280    0.46720    0.53280   1.00
Zn1      1.03280    0.53280    0.46720   1.00
Zn1      0.96720    0.46720    0.46720   1.00
O2       0.97650    0.52350    0.58820   1.00
O2       0.97650    0.58820    0.52350   1.00
O2       0.91180    0.52350    0.52350   1.00
O2       1.02350    0.47650    0.58820   1.00
O2       1.08820    0.47650    0.52350   1.00
O2       1.02350    0.41180    0.52350   1.00
O2       1.02350    0.58820    0.47650   1.00
O2       1.08820    0.52350    0.47650   1.00
O2       1.02350    0.52350    0.41180   1.00
O2       0.91180    0.47650    0.47650   1.00
O2       0.97650    0.41180    0.47650   1.00
O2       0.97650    0.47650    0.41180   1.00
C1       1.00000    0.50000    0.60520   1.00
C1       1.00000    0.60520    0.50000   1.00
C1       0.89480    0.50000    0.50000   1.00
C1       1.10520    0.50000    0.50000   1.00
C1       1.00000    0.39480    0.50000   1.00
C1       1.00000    0.50000    0.39480   1.00
O1       0.50000    0.50000    0.50000   1.00
Zn1      0.53280    0.46720    0.46720   1.00
Zn1      0.46720    0.53280    0.46720   1.00
Zn1      0.46720    0.46720    0.53280   1.00
Zn1      0.53280    0.53280    0.53280   1.00
O2       0.52350    0.47650    0.41180   1.00
O2       0.52350    0.41180    0.47650   1.00
O2       0.58820    0.47650    0.47650   1.00
O2       0.47650    0.52350    0.41180   1.00
O2       0.41180    0.52350    0.47650   1.00
O2       0.47650    0.58820    0.47650   1.00
O2       0.47650    0.41180    0.52350   1.00
O2       0.41180    0.47650    0.52350   1.00
O2       0.47650    0.47650    0.58820   1.00
O2       0.58820    0.52350    0.52350   1.00
O2       0.52350    0.58820    0.52350   1.00
O2       0.52350    0.52350    0.58820   1.00
C1       0.50000    0.50000    0.39480   1.00
C1       0.50000    0.39480    0.50000   1.00
C1       0.60520    0.50000    0.50000   1.00
C1       0.39480    0.50000    0.50000   1.00
C1       0.50000    0.60520    0.50000   1.00
C1       0.50000    0.50000    0.60520   1.00
O1       1.00000    1.00000    0.50000   1.00
Zn1      1.03280    0.96720    0.46720   1.00
Zn1      0.96720    1.03280    0.46720   1.00
Zn1      0.96720    0.96720    0.53280   1.00
Zn1      1.03280    1.03280    0.53280   1.00
O2       1.02350    0.97650    0.41180   1.00
O2       1.02350    0.91180    0.47650   1.00
O2       1.08820    0.97650    0.47650   1.00
O2       0.97650    1.02350    0.41180   1.00
O2       0.91180    1.02350    0.47650   1.00
O2       0.97650    1.08820    0.47650   1.00
O2       0.97650    0.91180    0.52350   1.00
O2       0.91180    0.97650    0.52350   1.00
O2       0.97650    0.97650    0.58820   1.00
O2       1.08820    1.02350    0.52350   1.00
O2       1.02350    1.08820    0.52350   1.00
O2       1.02350    1.02350    0.58820   1.00
C1       1.00000    1.00000    0.39480   1.00
C1       1.00000    0.89480    0.50000   1.00
C1       1.10520    1.00000    0.50000   1.00
C1       0.89480    1.00000    0.50000   1.00
C1       1.00000    1.10520    0.50000   1.00
C1       1.00000    1.00000    0.60520   1.00
O1       1.00000    0.50000    1.00000   1.00
Zn1      1.03280    0.46720    0.96720   1.00
Zn1      0.96720    0.53280    0.96720   1.00
Zn1      0.96720    0.46720    1.03280   1.00
Zn1      1.03280    0.53280    1.03280   1.00
O2       1.02350    0.47650    0.91180   1.00
O2       1.02350    0.41180    0.97650   1.00
O2       1.08820    0.47650    0.97650   1.00
O2       0.97650    0.52350    0.91180   1.00
O2       0.91180    0.52350    0.97650   1.00
O2       0.97650    0.58820    0.97650   1.00
O2       0.97650    0.41180    1.02350   1.00
O2       0.91180    0.47650    1.02350   1.00
O2       0.97650    0.47650    1.08820   1.00
O2       1.08820    0.52350    1.02350   1.00
O2       1.02350    0.58820    1.02350   1.00
O2       1.02350    0.52350    1.08820   1.00
C1       1.00000    0.50000    0.89480   1.00
C1       1.00000    0.39480    1.00000   1.00
C1       1.10520    0.50000    1.00000   1.00
C1       0.89480    0.50000    1.00000   1.00
C1       1.00000    0.60520    1.00000   1.00
C1       1.00000    0.50000    1.10520   1.00
O1       0.50000    1.00000    1.00000   1.00
Zn1      0.53280    0.96720    0.96720   1.00
Zn1      0.46720    1.03280    0.96720   1.00
Zn1      0.46720    0.96720    1.03280   1.00
Zn1      0.53280    1.03280    1.03280   1.00
O2       0.52350    0.97650    0.91180   1.00
O2       0.52350    0.91180    0.97650   1.00
O2       0.58820    0.97650    0.97650   1.00
O2       0.47650    1.02350    0.91180   1.00
O2       0.41180    1.02350    0.97650   1.00
O2       0.47650    1.08820    0.97650   1.00
O2       0.47650    0.91180    1.02350   1.00
O2       0.41180    0.97650    1.02350   1.00
O2       0.47650    0.97650    1.08820   1.00
O2       0.58820    1.02350    1.02350   1.00
O2       0.52350    1.08820    1.02350   1.00
O2       0.52350    1.02350    1.08820   1.00
C1       0.50000    1.00000    0.89480   1.00
C1       0.50000    0.89480    1.00000   1.00
C1       0.60520    1.00000    1.00000   1.00
C1       0.39480    1.00000    1.00000   1.00
C1       0.50000    1.10520    1.00000   1.00
C1       0.50000    1.00000    1.10520   1.00
C5       0.87570    0.76652    1.13218   1.00
H2       0.86240    0.79181    1.14745   1.00
H2       0.89669    0.77906    1.11090   1.00
C5       0.89717    0.74061    1.16194   1.00
C5       0.93784    0.75729    1.17123   1.00
H2       0.90050    0.71053    1.15015   1.00
O3       0.77109    0.68239    0.98000   1.00
C4       0.74968    0.75028    1.02100   1.00
C3c      0.78282    0.76132    1.04243   1.00
H1       0.80901    0.77017    1.02725   1.00
C3d      0.71567    0.73938    1.04135   1.00
C3       0.78295    0.76062    1.08354   1.00
O2       0.81469    0.77632    1.10248   1.00
C3       0.71594    0.73793    1.08227   1.00
H1       0.68962    0.72806    1.09657   1.00
C2       0.74933    0.74860    1.10439   1.00
C5       0.74089    0.65439    0.97879   1.00
H2       0.73373    0.64533    0.94838   1.00
H2       0.71374    0.66582    0.99266   1.00
C5       0.75478    0.61861    1.00129   1.00
H2       0.76298    0.62786    1.03137   1.00
H2       0.78168    0.60723    0.98698   1.00
C5       0.72290    0.58699    1.00262   1.00
H2       0.71438    0.57781    0.97268   1.00
H2       0.69652    0.59788    1.01811   1.00
C5       0.73807    0.55077    1.02445   1.00
C5       0.65909    0.75702    1.01105   1.00
C5       0.84218    0.74666    1.11070   1.00
H2       0.67441    0.77731    0.99088   1.00
H2       0.64911    0.77378    1.03712   1.00
H2       0.85286    0.73329    1.08300   1.00
H2       0.82962    0.72268    1.12895   1.00
H2       0.88108    0.73934    1.19030   1.00
H2       0.61747    0.78302    0.94247   1.00
H2       0.59320    0.79664    0.98763   1.00
C2       0.74887    0.74757    0.89605   1.00
C3       0.74004    0.78253    0.91597   1.00
O2       0.72188    0.81289    0.89674   1.00
C3       0.75973    0.71450    0.91826   1.00
H1       0.76764    0.68759    0.90385   1.00
C3a      0.74124    0.78342    0.95713   1.00
H1       0.73224    0.80975    0.97202   1.00
C3b      0.75968    0.71512    0.95922   1.00
C4       0.75032    0.74972    0.97900   1.00
O3       0.68328    0.72544    1.02167   1.00
C5       0.74926    0.84212    0.88720   1.00
H2       0.76367    0.85399    0.91391   1.00
C5       0.72694    0.87471    0.86674   1.00
H2       0.77220    0.83052    0.86726   1.00
H2       0.71210    0.89276    0.88932   1.00
H2       0.70346    0.86082    0.84907   1.00
C5       0.75320    0.90033    0.84082   1.00
H2       0.77819    0.91144    0.85824   1.00
C5       0.73023    0.93534    0.82453   1.00
H2       0.76439    0.88369    0.81507   1.00
C5       0.62357    0.74026    0.99017   1.00
H2       0.60471    0.72550    1.01215   1.00
H2       0.63378    0.71732    0.96952   1.00
C5       0.60059    0.77186    0.96800   1.00
C5       0.56219    0.75467    0.95225   1.00
H2       0.93485    0.78238    1.19286   1.00
H2       0.95684    0.73344    1.18447   1.00
H2       0.95191    0.76841    1.14323   1.00
H2       0.71266    0.53035    1.03105   1.00
H2       0.76037    0.53495    1.00551   1.00
H2       0.75241    0.56019    1.05293   1.00
H2       0.74102    0.94237    0.79387   1.00
H2       0.69786    0.92781    0.82344   1.00
H2       0.73482    0.96174    0.84423   1.00
H2       0.56233    0.72167    0.95634   1.00
H2       0.53654    0.76779    0.96884   1.00
H2       0.55929    0.76182    0.91990   1.00
C5       0.76652    1.13218    0.87570   1.00
H2       0.79181    1.14745    0.86240   1.00
H2       0.77906    1.11090    0.89669   1.00
C5       0.74061    1.16194    0.89717   1.00
C5       0.75729    1.17123    0.93784   1.00
H2       0.71053    1.15015    0.90050   1.00
O3       0.68239    0.98000    0.77109   1.00
C4       0.75028    1.02100    0.74968   1.00
C3c      0.76132    1.04243    0.78282   1.00
H1       0.77017    1.02725    0.80901   1.00
C3d      0.73938    1.04135    0.71567   1.00
C3       0.76062    1.08354    0.78295   1.00
O2       0.77632    1.10248    0.81469   1.00
C3       0.73793    1.08227    0.71594   1.00
H1       0.72806    1.09657    0.68962   1.00
C2       0.74860    1.10439    0.74933   1.00
C5       0.65439    0.97879    0.74089   1.00
H2       0.64533    0.94838    0.73373   1.00
H2       0.66582    0.99266    0.71374   1.00
C5       0.61861    1.00129    0.75478   1.00
H2       0.62786    1.03137    0.76298   1.00
H2       0.60723    0.98698    0.78168   1.00
C5       0.58699    1.00262    0.72290   1.00
H2       0.57781    0.97268    0.71438   1.00
H2       0.59788    1.01811    0.69652   1.00
C5       0.55077    1.02445    0.73807   1.00
C5       0.75702    1.01105    0.65909   1.00
C5       0.74666    1.11070    0.84218   1.00
H2       0.77731    0.99088    0.67441   1.00
H2       0.77378    1.03712    0.64911   1.00
H2       0.73329    1.08300    0.85286   1.00
H2       0.72268    1.12895    0.82962   1.00
H2       0.73934    1.19030    0.88108   1.00
H2       0.78302    0.94247    0.61747   1.00
H2       0.79664    0.98763    0.59320   1.00
C2       0.74757    0.89605    0.74887   1.00
C3       0.78253    0.91597    0.74004   1.00
O2       0.81289    0.89674    0.72188   1.00
C3       0.71450    0.91826    0.75973   1.00
H1       0.68759    0.90385    0.76764   1.00
C3a      0.78342    0.95713    0.74124   1.00
H1       0.80975    0.97202    0.73224   1.00
C3b      0.71512    0.95922    0.75968   1.00
C4       0.74972    0.97900    0.75032   1.00
O3       0.72544    1.02167    0.68328   1.00
C5       0.84212    0.88720    0.74926   1.00
H2       0.85399    0.91391    0.76367   1.00
C5       0.87471    0.86674    0.72694   1.00
H2       0.83052    0.86726    0.77220   1.00
H2       0.89276    0.88932    0.71210   1.00
H2       0.86082    0.84907    0.70346   1.00
C5       0.90033    0.84082    0.75320   1.00
H2       0.91144    0.85824    0.77819   1.00
C5       0.93534    0.82453    0.73023   1.00
H2       0.88369    0.81507    0.76439   1.00
C5       0.74026    0.99017    0.62357   1.00
H2       0.72550    1.01215    0.60471   1.00
H2       0.71732    0.96952    0.63378   1.00
C5       0.77186    0.96800    0.60059   1.00
C5       0.75467    0.95225    0.56219   1.00
H2       0.78238    1.19286    0.93485   1.00
H2       0.73344    1.18447    0.95684   1.00
H2       0.76841    1.14323    0.95191   1.00
H2       0.53035    1.03105    0.71266   1.00
H2       0.53495    1.00551    0.76037   1.00
H2       0.56019    1.05293    0.75241   1.00
H2       0.94237    0.79387    0.74102   1.00
H2       0.92781    0.82344    0.69786   1.00
H2       0.96174    0.84423    0.73482   1.00
H2       0.72167    0.95634    0.56233   1.00
H2       0.76779    0.96884    0.53654   1.00
H2       0.76182    0.91990    0.55929   1.00
C5       0.36782    0.87570    0.73348   1.00
H2       0.35255    0.86240    0.70819   1.00
H2       0.38910    0.89669    0.72094   1.00
C5       0.33806    0.89717    0.75939   1.00
C5       0.32877    0.93784    0.74271   1.00
H2       0.34985    0.90050    0.78947   1.00
O3       0.52000    0.77109    0.81761   1.00
C4       0.47900    0.74968    0.74972   1.00
C3c      0.45757    0.78282    0.73868   1.00
H1       0.47275    0.80901    0.72983   1.00
C3d      0.45865    0.71567    0.76062   1.00
C3       0.41646    0.78295    0.73938   1.00
O2       0.39752    0.81469    0.72368   1.00
C3       0.41773    0.71594    0.76207   1.00
H1       0.40343    0.68962    0.77194   1.00
C2       0.39561    0.74933    0.75140   1.00
C5       0.52121    0.74089    0.84561   1.00
H2       0.55162    0.73373    0.85467   1.00
H2       0.50734    0.71374    0.83418   1.00
C5       0.49871    0.75478    0.88139   1.00
H2       0.46863    0.76298    0.87214   1.00
H2       0.51302    0.78168    0.89277   1.00
C5       0.49738    0.72290    0.91301   1.00
H2       0.52732    0.71438    0.92219   1.00
H2       0.48189    0.69652    0.90212   1.00
C5       0.47555    0.73807    0.94923   1.00
C5       0.48895    0.65909    0.74298   1.00
C5       0.38930    0.84218    0.75334   1.00
H2       0.50912    0.67441    0.72269   1.00
H2       0.46288    0.64911    0.72622   1.00
H2       0.41700    0.85286    0.76671   1.00
H2       0.37105    0.82962    0.77732   1.00
H2       0.30970    0.88108    0.76066   1.00
H2       0.55753    0.61747    0.71698   1.00
H2       0.51237    0.59320    0.70336   1.00
C2       0.60395    0.74887    0.75243   1.00
C3       0.58403    0.74004    0.71747   1.00
O2       0.60326    0.72188    0.68711   1.00
C3       0.58174    0.75973    0.78550   1.00
H1       0.59615    0.76764    0.81241   1.00
C3a      0.54287    0.74124    0.71658   1.00
H1       0.52798    0.73224    0.69025   1.00
C3b      0.54078    0.75968    0.78488   1.00
C4       0.52100    0.75032    0.75028   1.00
O3       0.47833    0.68328    0.77456   1.00
C5       0.61280    0.74926    0.65788   1.00
H2       0.58609    0.76367    0.64601   1.00
C5       0.63326    0.72694    0.62529   1.00
H2       0.63274    0.77220    0.66948   1.00
H2       0.61068    0.71210    0.60724   1.00
H2       0.65093    0.70346    0.63918   1.00
C5       0.65918    0.75320    0.59967   1.00
H2       0.64176    0.77819    0.58856   1.00
C5       0.67547    0.73023    0.56466   1.00
H2       0.68493    0.76439    0.61631   1.00
C5       0.50983    0.62357    0.75974   1.00
H2       0.48785    0.60471    0.77450   1.00
H2       0.53048    0.63378    0.78268   1.00
C5       0.53200    0.60059    0.72814   1.00
C5       0.54775    0.56219    0.74533   1.00
H2       0.30714    0.93485    0.71762   1.00
H2       0.31553    0.95684    0.76656   1.00
H2       0.35677    0.95191    0.73159   1.00
H2       0.46895    0.71266    0.96965   1.00
H2       0.49449    0.76037    0.96505   1.00
H2       0.44707    0.75241    0.93981   1.00
H2       0.70613    0.74102    0.55763   1.00
H2       0.67656    0.69786    0.57219   1.00
H2       0.65577    0.73482    0.53826   1.00
H2       0.54366    0.56233    0.77833   1.00
H2       0.53116    0.53654    0.73221   1.00
H2       0.58010    0.55929    0.73818   1.00
C5       1.13218    0.87570    0.76652   1.00
H2       1.14745    0.86240    0.79181   1.00
H2       1.11090    0.89669    0.77906   1.00
C5       1.16194    0.89717    0.74061   1.00
C5       1.17123    0.93784    0.75729   1.00
H2       1.15015    0.90050    0.71053   1.00
O3       0.98000    0.77109    0.68239   1.00
C4       1.02100    0.74968    0.75028   1.00
C3c      1.04243    0.78282    0.76132   1.00
H1       1.02725    0.80901    0.77017   1.00
C3d      1.04135    0.71567    0.73938   1.00
C3       1.08354    0.78295    0.76062   1.00
O2       1.10248    0.81469    0.77632   1.00
C3       1.08227    0.71594    0.73793   1.00
H1       1.09657    0.68962    0.72806   1.00
C2       1.10439    0.74933    0.74860   1.00
C5       0.97879    0.74089    0.65439   1.00
H2       0.94838    0.73373    0.64533   1.00
H2       0.99266    0.71374    0.66582   1.00
C5       1.00129    0.75478    0.61861   1.00
H2       1.03137    0.76298    0.62786   1.00
H2       0.98698    0.78168    0.60723   1.00
C5       1.00262    0.72290    0.58699   1.00
H2       0.97268    0.71438    0.57781   1.00
H2       1.01811    0.69652    0.59788   1.00
C5       1.02445    0.73807    0.55077   1.00
C5       1.01105    0.65909    0.75702   1.00
C5       1.11070    0.84218    0.74666   1.00
H2       0.99088    0.67441    0.77731   1.00
H2       1.03712    0.64911    0.77378   1.00
H2       1.08300    0.85286    0.73329   1.00
H2       1.12895    0.82962    0.72268   1.00
H2       1.19030    0.88108    0.73934   1.00
H2       0.94247    0.61747    0.78302   1.00
H2       0.98763    0.59320    0.79664   1.00
C2       0.89605    0.74887    0.74757   1.00
C3       0.91597    0.74004    0.78253   1.00
O2       0.89674    0.72188    0.81289   1.00
C3       0.91826    0.75973    0.71450   1.00
H1       0.90385    0.76764    0.68759   1.00
C3a      0.95713    0.74124    0.78342   1.00
H1       0.97202    0.73224    0.80975   1.00
C3b      0.95922    0.75968    0.71512   1.00
C4       0.97900    0.75032    0.74972   1.00
O3       1.02167    0.68328    0.72544   1.00
C5       0.88720    0.74926    0.84212   1.00
H2       0.91391    0.76367    0.85399   1.00
C5       0.86674    0.72694    0.87471   1.00
H2       0.86726    0.77220    0.83052   1.00
H2       0.88932    0.71210    0.89276   1.00
H2       0.84907    0.70346    0.86082   1.00
C5       0.84082    0.75320    0.90033   1.00
H2       0.85824    0.77819    0.91144   1.00
C5       0.82453    0.73023    0.93534   1.00
H2       0.81507    0.76439    0.88369   1.00
C5       0.99017    0.62357    0.74026   1.00
H2       1.01215    0.60471    0.72550   1.00
H2       0.96952    0.63378    0.71732   1.00
C5       0.96800    0.60059    0.77186   1.00
C5       0.95225    0.56219    0.75467   1.00
H2       1.19286    0.93485    0.78238   1.00
H2       1.18447    0.95684    0.73344   1.00
H2       1.14323    0.95191    0.76841   1.00
H2       1.03105    0.71266    0.53035   1.00
H2       1.00551    0.76037    0.53495   1.00
H2       1.05293    0.75241    0.56019   1.00
H2       0.79387    0.74102    0.94237   1.00
H2       0.82344    0.69786    0.92781   1.00
H2       0.84423    0.73482    0.96174   1.00
H2       0.95634    0.56233    0.72167   1.00
H2       0.96884    0.53654    0.76779   1.00
H2       0.91990    0.55929    0.76182   1.00
C5       0.73348    0.36782    0.87570   1.00
H2       0.70819    0.35255    0.86240   1.00
H2       0.72094    0.38910    0.89669   1.00
C5       0.75939    0.33806    0.89717   1.00
C5       0.74271    0.32877    0.93784   1.00
H2       0.78947    0.34985    0.90050   1.00
O3       0.81761    0.52000    0.77109   1.00
C4       0.74972    0.47900    0.74968   1.00
C3c      0.73868    0.45757    0.78282   1.00
H1       0.72983    0.47275    0.80901   1.00
C3d      0.76062    0.45865    0.71567   1.00
C3       0.73938    0.41646    0.78295   1.00
O2       0.72368    0.39752    0.81469   1.00
C3       0.76207    0.41773    0.71594   1.00
H1       0.77194    0.40343    0.68962   1.00
C2       0.75140    0.39561    0.74933   1.00
C5       0.84561    0.52121    0.74089   1.00
H2       0.85467    0.55162    0.73373   1.00
H2       0.83418    0.50734    0.71374   1.00
C5       0.88139    0.49871    0.75478   1.00
H2       0.87214    0.46863    0.76298   1.00
H2       0.89277    0.51302    0.78168   1.00
C5       0.91301    0.49738    0.72290   1.00
H2       0.92219    0.52732    0.71438   1.00
H2       0.90212    0.48189    0.69652   1.00
C5       0.94923    0.47555    0.73807   1.00
C5       0.74298    0.48895    0.65909   1.00
C5       0.75334    0.38930    0.84218   1.00
H2       0.72269    0.50912    0.67441   1.00
H2       0.72622    0.46288    0.64911   1.00
H2       0.76671    0.41700    0.85286   1.00
H2       0.77732    0.37105    0.82962   1.00
H2       0.76066    0.30970    0.88108   1.00
H2       0.71698    0.55753    0.61747   1.00
H2       0.70336    0.51237    0.59320   1.00
C2       0.75243    0.60395    0.74887   1.00
C3       0.71747    0.58403    0.74004   1.00
O2       0.68711    0.60326    0.72188   1.00
C3       0.78550    0.58174    0.75973   1.00
H1       0.81241    0.59615    0.76764   1.00
C3a      0.71658    0.54287    0.74124   1.00
H1       0.69025    0.52798    0.73224   1.00
C3b      0.78488    0.54078    0.75968   1.00
C4       0.75028    0.52100    0.75032   1.00
O3       0.77456    0.47833    0.68328   1.00
C5       0.65788    0.61280    0.74926   1.00
H2       0.64601    0.58609    0.76367   1.00
C5       0.62529    0.63326    0.72694   1.00
H2       0.66948    0.63274    0.77220   1.00
H2       0.60724    0.61068    0.71210   1.00
H2       0.63918    0.65093    0.70346   1.00
C5       0.59967    0.65918    0.75320   1.00
H2       0.58856    0.64176    0.77819   1.00
C5       0.56466    0.67547    0.73023   1.00
H2       0.61631    0.68493    0.76439   1.00
C5       0.75974    0.50983    0.62357   1.00
H2       0.77450    0.48785    0.60471   1.00
H2       0.78268    0.53048    0.63378   1.00
C5       0.72814    0.53200    0.60059   1.00
C5       0.74533    0.54775    0.56219   1.00
H2       0.71762    0.30714    0.93485   1.00
H2       0.76656    0.31553    0.95684   1.00
H2       0.73159    0.35677    0.95191   1.00
H2       0.96965    0.46895    0.71266   1.00
H2       0.96505    0.49449    0.76037   1.00
H2       0.93981    0.44707    0.75241   1.00
H2       0.55763    0.70613    0.74102   1.00
H2       0.57219    0.67656    0.69786   1.00
H2       0.53826    0.65577    0.73482   1.00
H2       0.77833    0.54366    0.56233   1.00
H2       0.73221    0.53116    0.53654   1.00
H2       0.73818    0.58010    0.55929   1.00
C5       0.87570    0.73348    0.36782   1.00
H2       0.86240    0.70819    0.35255   1.00
H2       0.89669    0.72094    0.38910   1.00
C5       0.89717    0.75939    0.33806   1.00
C5       0.93784    0.74271    0.32877   1.00
H2       0.90050    0.78947    0.34985   1.00
O3       0.77109    0.81761    0.52000   1.00
C4       0.74968    0.74972    0.47900   1.00
C3c      0.78282    0.73868    0.45757   1.00
H1       0.80901    0.72983    0.47275   1.00
C3d      0.71567    0.76062    0.45865   1.00
C3       0.78295    0.73938    0.41646   1.00
O2       0.81469    0.72368    0.39752   1.00
C3       0.71594    0.76207    0.41773   1.00
H1       0.68962    0.77194    0.40343   1.00
C2       0.74933    0.75140    0.39561   1.00
C5       0.74089    0.84561    0.52121   1.00
H2       0.73373    0.85467    0.55162   1.00
H2       0.71374    0.83418    0.50734   1.00
C5       0.75478    0.88139    0.49871   1.00
H2       0.76298    0.87214    0.46863   1.00
H2       0.78168    0.89277    0.51302   1.00
C5       0.72290    0.91301    0.49738   1.00
H2       0.71438    0.92219    0.52732   1.00
H2       0.69652    0.90212    0.48189   1.00
C5       0.73807    0.94923    0.47555   1.00
C5       0.65909    0.74298    0.48895   1.00
C5       0.84218    0.75334    0.38930   1.00
H2       0.67441    0.72269    0.50912   1.00
H2       0.64911    0.72622    0.46288   1.00
H2       0.85286    0.76671    0.41700   1.00
H2       0.82962    0.77732    0.37105   1.00
H2       0.88108    0.76066    0.30970   1.00
H2       0.61747    0.71698    0.55753   1.00
H2       0.59320    0.70336    0.51237   1.00
C2       0.74887    0.75243    0.60395   1.00
C3       0.74004    0.71747    0.58403   1.00
O2       0.72188    0.68711    0.60326   1.00
C3       0.75973    0.78550    0.58174   1.00
H1       0.76764    0.81241    0.59615   1.00
C3a      0.74124    0.71658    0.54287   1.00
H1       0.73224    0.69025    0.52798   1.00
C3b      0.75968    0.78488    0.54078   1.00
C4       0.75032    0.75028    0.52100   1.00
O3       0.68328    0.77456    0.47833   1.00
C5       0.74926    0.65788    0.61280   1.00
H2       0.76367    0.64601    0.58609   1.00
C5       0.72694    0.62529    0.63326   1.00
H2       0.77220    0.66948    0.63274   1.00
H2       0.71210    0.60724    0.61068   1.00
H2       0.70346    0.63918    0.65093   1.00
C5       0.75320    0.59967    0.65918   1.00
H2       0.77819    0.58856    0.64176   1.00
C5       0.73023    0.56466    0.67547   1.00
H2       0.76439    0.61631    0.68493   1.00
C5       0.62357    0.75974    0.50983   1.00
H2       0.60471    0.77450    0.48785   1.00
H2       0.63378    0.78268    0.53048   1.00
C5       0.60059    0.72814    0.53200   1.00
C5       0.56219    0.74533    0.54775   1.00
H2       0.93485    0.71762    0.30714   1.00
H2       0.95684    0.76656    0.31553   1.00
H2       0.95191    0.73159    0.35677   1.00
H2       0.71266    0.96965    0.46895   1.00
H2       0.76037    0.96505    0.49449   1.00
H2       0.75241    0.93981    0.44707   1.00
H2       0.74102    0.55763    0.70613   1.00
H2       0.69786    0.57219    0.67656   1.00
H2       0.73482    0.53826    0.65577   1.00
H2       0.56233    0.77833    0.54366   1.00
H2       0.53654    0.73221    0.53116   1.00
H2       0.55929    0.73818    0.58010   1.00
C5       0.37570    0.26652    1.13218   1.00
H2       0.36240    0.29181    1.14745   1.00
H2       0.39669    0.27906    1.11090   1.00
C5       0.39717    0.24061    1.16194   1.00
C5       0.43784    0.25729    1.17123   1.00
H2       0.40050    0.21053    1.15015   1.00
O3       0.27109    0.18239    0.98000   1.00
C4       0.24968    0.25028    1.02100   1.00
C3c      0.28282    0.26132    1.04243   1.00
H1       0.30901    0.27017    1.02725   1.00
C3d      0.21567    0.23938    1.04135   1.00
C3       0.28295    0.26062    1.08354   1.00
O2       0.31469    0.27632    1.10248   1.00
C3       0.21594    0.23793    1.08227   1.00
H1       0.18962    0.22806    1.09657   1.00
C2       0.24933    0.24860    1.10439   1.00
C5       0.24089    0.15439    0.97879   1.00
H2       0.23373    0.14533    0.94838   1.00
H2       0.21374    0.16582    0.99266   1.00
C5       0.25478    0.11861    1.00129   1.00
H2       0.26298    0.12786    1.03137   1.00
H2       0.28168    0.10723    0.98698   1.00
C5       0.22290    0.08699    1.00262   1.00
H2       0.21438    0.07781    0.97268   1.00
H2       0.19652    0.09788    1.01811   1.00
C5       0.23807    0.05077    1.02445   1.00
C5       0.15909    0.25702    1.01105   1.00
C5       0.34218    0.24666    1.11070   1.00
H2       0.17441    0.27731    0.99088   1.00
H2       0.14911    0.27378    1.03712   1.00
H2       0.35286    0.23329    1.08300   1.00
H2       0.32962    0.22268    1.12895   1.00
H2       0.38108    0.23934    1.19030   1.00
H2       0.11747    0.28302    0.94247   1.00
H2       0.09320    0.29664    0.98763   1.00
C2       0.24887    0.24757    0.89605   1.00
C3       0.24004    0.28253    0.91597   1.00
O2       0.22188    0.31289    0.89674   1.00
C3       0.25973    0.21450    0.91826   1.00
H1       0.26764    0.18759    0.90385   1.00
C3a      0.24124    0.28342    0.95713   1.00
H1       0.23224    0.30975    0.97202   1.00
C3b      0.25968    0.21512    0.95922   1.00
C4       0.25032    0.24972    0.97900   1.00
O3       0.18328    0.22544    1.02167   1.00
C5       0.24926    0.34212    0.88720   1.00
H2       0.26367    0.35399    0.91391   1.00
C5       0.22694    0.37471    0.86674   1.00
H2       0.27220    0.33052    0.86726   1.00
H2       0.21210    0.39276    0.88932   1.00
H2       0.20346    0.36082    0.84907   1.00
C5       0.25320    0.40033    0.84082   1.00
H2       0.27819    0.41144    0.85824   1.00
C5       0.23023    0.43534    0.82453   1.00
H2       0.26439    0.38369    0.81507   1.00
C5       0.12357    0.24026    0.99017   1.00
H2       0.10471    0.22550    1.01215   1.00
H2       0.13378    0.21732    0.96952   1.00
C5       0.10059    0.27186    0.96800   1.00
C5       0.06219    0.25467    0.95225   1.00
H2       0.43485    0.28238    1.19286   1.00
H2       0.45684    0.23344    1.18447   1.00
H2       0.45191    0.26841    1.14323   1.00
H2       0.21266    0.03035    1.03105   1.00
H2       0.26037    0.03495    1.00551   1.00
H2       0.25241    0.06019    1.05293   1.00
H2       0.24102    0.44237    0.79387   1.00
H2       0.19786    0.42781    0.82344   1.00
H2       0.23482    0.46174    0.84423   1.00
H2       0.06233    0.22167    0.95634   1.00
H2       0.03654    0.26779    0.96884   1.00
H2       0.05929    0.26182    0.91990   1.00
C5       0.26652    0.63218    0.87570   1.00
H2       0.29181    0.64745    0.86240   1.00
H2       0.27906    0.61090    0.89669   1.00
C5       0.24061    0.66194    0.89717   1.00
C5       0.25729    0.67123    0.93784   1.00
H2       0.21053    0.65015    0.90050   1.00
O3       0.18239    0.48000    0.77109   1.00
C4       0.25028    0.52100    0.74968   1.00
C3c      0.26132    0.54243    0.78282   1.00
H1       0.27017    0.52725    0.80901   1.00
C3d      0.23938    0.54135    0.71567   1.00
C3       0.26062    0.58354    0.78295   1.00
O2       0.27632    0.60248    0.81469   1.00
C3       0.23793    0.58227    0.71594   1.00
H1       0.22806    0.59657    0.68962   1.00
C2       0.24860    0.60439    0.74933   1.00
C5       0.15439    0.47879    0.74089   1.00
H2       0.14533    0.44838    0.73373   1.00
H2       0.16582    0.49266    0.71374   1.00
C5       0.11861    0.50129    0.75478   1.00
H2       0.12786    0.53137    0.76298   1.00
H2       0.10723    0.48698    0.78168   1.00
C5       0.08699    0.50262    0.72290   1.00
H2       0.07781    0.47268    0.71438   1.00
H2       0.09788    0.51811    0.69652   1.00
C5       0.05077    0.52445    0.73807   1.00
C5       0.25702    0.51105    0.65909   1.00
C5       0.24666    0.61070    0.84218   1.00
H2       0.27731    0.49088    0.67441   1.00
H2       0.27378    0.53712    0.64911   1.00
H2       0.23329    0.58300    0.85286   1.00
H2       0.22268    0.62895    0.82962   1.00
H2       0.23934    0.69030    0.88108   1.00
H2       0.28302    0.44247    0.61747   1.00
H2       0.29664    0.48763    0.59320   1.00
C2       0.24757    0.39605    0.74887   1.00
C3       0.28253    0.41597    0.74004   1.00
O2       0.31289    0.39674    0.72188   1.00
C3       0.21450    0.41826    0.75973   1.00
H1       0.18759    0.40385    0.76764   1.00
C3a      0.28342    0.45713    0.74124   1.00
H1       0.30975    0.47202    0.73224   1.00
C3b      0.21512    0.45922    0.75968   1.00
C4       0.24972    0.47900    0.75032   1.00
O3       0.22544    0.52167    0.68328   1.00
C5       0.34212    0.38720    0.74926   1.00
H2       0.35399    0.41391    0.76367   1.00
C5       0.37471    0.36674    0.72694   1.00
H2       0.33052    0.36726    0.77220   1.00
H2       0.39276    0.38932    0.71210   1.00
H2       0.36082    0.34907    0.70346   1.00
C5       0.40033    0.34082    0.75320   1.00
H2       0.41144    0.35824    0.77819   1.00
C5       0.43534    0.32453    0.73023   1.00
H2       0.38369    0.31507    0.76439   1.00
C5       0.24026    0.49017    0.62357   1.00
H2       0.22550    0.51215    0.60471   1.00
H2       0.21732    0.46952    0.63378   1.00
C5       0.27186    0.46800    0.60059   1.00
C5       0.25467    0.45225    0.56219   1.00
H2       0.28238    0.69286    0.93485   1.00
H2       0.23344    0.68447    0.95684   1.00
H2       0.26841    0.64323    0.95191   1.00
H2       0.03035    0.53105    0.71266   1.00
H2       0.03495    0.50551    0.76037   1.00
H2       0.06019    0.55293    0.75241   1.00
H2       0.44237    0.29387    0.74102   1.00
H2       0.42781    0.32344    0.69786   1.00
H2       0.46174    0.34423    0.73482   1.00
H2       0.22167    0.45634    0.56233   1.00
H2       0.26779    0.46884    0.53654   1.00
H2       0.26182    0.41990    0.55929   1.00
C5       -0.13218   0.37570    0.73348   1.00
H2       -0.14745   0.36240    0.70819   1.00
H2       -0.11090   0.39669    0.72094   1.00
C5       -0.16194   0.39717    0.75939   1.00
C5       -0.17123   0.43784    0.74271   1.00
H2       -0.15015   0.40050    0.78947   1.00
O3       0.02000    0.27109    0.81761   1.00
C4       -0.02100   0.24968    0.74972   1.00
C3c      -0.04243   0.28282    0.73868   1.00
H1       -0.02725   0.30901    0.72983   1.00
C3d      -0.04135   0.21567    0.76062   1.00
C3       -0.08354   0.28295    0.73938   1.00
O2       -0.10248   0.31469    0.72368   1.00
C3       -0.08227   0.21594    0.76207   1.00
H1       -0.09657   0.18962    0.77194   1.00
C2       -0.10439   0.24933    0.75140   1.00
C5       0.02121    0.24089    0.84561   1.00
H2       0.05162    0.23373    0.85467   1.00
H2       0.00734    0.21374    0.83418   1.00
C5       -0.00129   0.25478    0.88139   1.00
H2       -0.03137   0.26298    0.87214   1.00
H2       0.01302    0.28168    0.89277   1.00
C5       -0.00262   0.22290    0.91301   1.00
H2       0.02732    0.21438    0.92219   1.00
H2       -0.01811   0.19652    0.90212   1.00
C5       -0.02445   0.23807    0.94923   1.00
C5       -0.01105   0.15909    0.74298   1.00
C5       -0.11070   0.34218    0.75334   1.00
H2       0.00912    0.17441    0.72269   1.00
H2       -0.03712   0.14911    0.72622   1.00
H2       -0.08300   0.35286    0.76671   1.00
H2       -0.12895   0.32962    0.77732   1.00
H2       -0.19030   0.38108    0.76066   1.00
H2       0.05753    0.11747    0.71698   1.00
H2       0.01237    0.09320    0.70336   1.00
C2       0.10395    0.24887    0.75243   1.00
C3       0.08403    0.24004    0.71747   1.00
O2       0.10326    0.22188    0.68711   1.00
C3       0.08174    0.25973    0.78550   1.00
H1       0.09615    0.26764    0.81241   1.00
C3a      0.04287    0.24124    0.71658   1.00
H1       0.02798    0.23224    0.69025   1.00
C3b      0.04078    0.25968    0.78488   1.00
C4       0.02100    0.25032    0.75028   1.00
O3       -0.02167   0.18328    0.77456   1.00
C5       0.11280    0.24926    0.65788   1.00
H2       0.08609    0.26367    0.64601   1.00
C5       0.13326    0.22694    0.62529   1.00
H2       0.13274    0.27220    0.66948   1.00
H2       0.11068    0.21210    0.60724   1.00
H2       0.15093    0.20346    0.63918   1.00
C5       0.15918    0.25320    0.59967   1.00
H2       0.14176    0.27819    0.58856   1.00
C5       0.17547    0.23023    0.56466   1.00
H2       0.18493    0.26439    0.61631   1.00
C5       0.00983    0.12357    0.75974   1.00
H2       -0.01215   0.10471    0.77450   1.00
H2       0.03048    0.13378    0.78268   1.00
C5       0.03200    0.10059    0.72814   1.00
C5       0.04775    0.06219    0.74533   1.00
H2       -0.19286   0.43485    0.71762   1.00
H2       -0.18447   0.45684    0.76656   1.00
H2       -0.14323   0.45191    0.73159   1.00
H2       -0.03105   0.21266    0.96965   1.00
H2       -0.00551   0.26037    0.96505   1.00
H2       -0.05293   0.25241    0.93981   1.00
H2       0.20613    0.24102    0.55763   1.00
H2       0.17656    0.19786    0.57219   1.00
H2       0.15577    0.23482    0.53826   1.00
H2       0.04366    0.06233    0.77833   1.00
H2       0.03116    0.03654    0.73221   1.00
H2       0.08010    0.05929    0.73818   1.00
C5       0.63218    0.37570    0.76652   1.00
H2       0.64745    0.36240    0.79181   1.00
H2       0.61090    0.39669    0.77906   1.00
C5       0.66194    0.39717    0.74061   1.00
C5       0.67123    0.43784    0.75729   1.00
H2       0.65015    0.40050    0.71053   1.00
O3       0.48000    0.27109    0.68239   1.00
C4       0.52100    0.24968    0.75028   1.00
C3c      0.54243    0.28282    0.76132   1.00
H1       0.52725    0.30901    0.77017   1.00
C3d      0.54135    0.21567    0.73938   1.00
C3       0.58354    0.28295    0.76062   1.00
O2       0.60248    0.31469    0.77632   1.00
C3       0.58227    0.21594    0.73793   1.00
H1       0.59657    0.18962    0.72806   1.00
C2       0.60439    0.24933    0.74860   1.00
C5       0.47879    0.24089    0.65439   1.00
H2       0.44838    0.23373    0.64533   1.00
H2       0.49266    0.21374    0.66582   1.00
C5       0.50129    0.25478    0.61861   1.00
H2       0.53137    0.26298    0.62786   1.00
H2       0.48698    0.28168    0.60723   1.00
C5       0.50262    0.22290    0.58699   1.00
H2       0.47268    0.21438    0.57781   1.00
H2       0.51811    0.19652    0.59788   1.00
C5       0.52445    0.23807    0.55077   1.00
C5       0.51105    0.15909    0.75702   1.00
C5       0.61070    0.34218    0.74666   1.00
H2       0.49088    0.17441    0.77731   1.00
H2       0.53712    0.14911    0.77378   1.00
H2       0.58300    0.35286    0.73329   1.00
H2       0.62895    0.32962    0.72268   1.00
H2       0.69030    0.38108    0.73934   1.00
H2       0.44247    0.11747    0.78302   1.00
H2       0.48763    0.09320    0.79664   1.00
C2       0.39605    0.24887    0.74757   1.00
C3       0.41597    0.24004    0.78253   1.00
O2       0.39674    0.22188    0.81289   1.00
C3       0.41826    0.25973    0.71450   1.00
H1       0.40385    0.26764    0.68759   1.00
C3a      0.45713    0.24124    0.78342   1.00
H1       0.47202    0.23224    0.80975   1.00
C3b      0.45922    0.25968    0.71512   1.00
C4       0.47900    0.25032    0.74972   1.00
O3       0.52167    0.18328    0.72544   1.00
C5       0.38720    0.24926    0.84212   1.00
H2       0.41391    0.26367    0.85399   1.00
C5       0.36674    0.22694    0.87471   1.00
H2       0.36726    0.27220    0.83052   1.00
H2       0.38932    0.21210    0.89276   1.00
H2       0.34907    0.20346    0.86082   1.00
C5       0.34082    0.25320    0.90033   1.00
H2       0.35824    0.27819    0.91144   1.00
C5       0.32453    0.23023    0.93534   1.00
H2       0.31507    0.26439    0.88369   1.00
C5       0.49017    0.12357    0.74026   1.00
H2       0.51215    0.10471    0.72550   1.00
H2       0.46952    0.13378    0.71732   1.00
C5       0.46800    0.10059    0.77186   1.00
C5       0.45225    0.06219    0.75467   1.00
H2       0.69286    0.43485    0.78238   1.00
H2       0.68447    0.45684    0.73344   1.00
H2       0.64323    0.45191    0.76841   1.00
H2       0.53105    0.21266    0.53035   1.00
H2       0.50551    0.26037    0.53495   1.00
H2       0.55293    0.25241    0.56019   1.00
H2       0.29387    0.24102    0.94237   1.00
H2       0.32344    0.19786    0.92781   1.00
H2       0.34423    0.23482    0.96174   1.00
H2       0.45634    0.06233    0.72167   1.00
H2       0.46884    0.03654    0.76779   1.00
H2       0.41990    0.05929    0.76182   1.00
C5       0.23348    -0.13218   0.87570   1.00
H2       0.20819    -0.14745   0.86240   1.00
H2       0.22094    -0.11090   0.89669   1.00
C5       0.25939    -0.16194   0.89717   1.00
C5       0.24271    -0.17123   0.93784   1.00
H2       0.28947    -0.15015   0.90050   1.00
O3       0.31761    0.02000    0.77109   1.00
C4       0.24972    -0.02100   0.74968   1.00
C3c      0.23868    -0.04243   0.78282   1.00
H1       0.22983    -0.02725   0.80901   1.00
C3d      0.26062    -0.04135   0.71567   1.00
C3       0.23938    -0.08354   0.78295   1.00
O2       0.22368    -0.10248   0.81469   1.00
C3       0.26207    -0.08227   0.71594   1.00
H1       0.27194    -0.09657   0.68962   1.00
C2       0.25140    -0.10439   0.74933   1.00
C5       0.34561    0.02121    0.74089   1.00
H2       0.35467    0.05162    0.73373   1.00
H2       0.33418    0.00734    0.71374   1.00
C5       0.38139    -0.00129   0.75478   1.00
H2       0.37214    -0.03137   0.76298   1.00
H2       0.39277    0.01302    0.78168   1.00
C5       0.41301    -0.00262   0.72290   1.00
H2       0.42219    0.02732    0.71438   1.00
H2       0.40212    -0.01811   0.69652   1.00
C5       0.44923    -0.02445   0.73807   1.00
C5       0.24298    -0.01105   0.65909   1.00
C5       0.25334    -0.11070   0.84218   1.00
H2       0.22269    0.00912    0.67441   1.00
H2       0.22622    -0.03712   0.64911   1.00
H2       0.26671    -0.08300   0.85286   1.00
H2       0.27732    -0.12895   0.82962   1.00
H2       0.26066    -0.19030   0.88108   1.00
H2       0.21698    0.05753    0.61747   1.00
H2       0.20336    0.01237    0.59320   1.00
C2       0.25243    0.10395    0.74887   1.00
C3       0.21747    0.08403    0.74004   1.00
O2       0.18711    0.10326    0.72188   1.00
C3       0.28550    0.08174    0.75973   1.00
H1       0.31241    0.09615    0.76764   1.00
C3a      0.21658    0.04287    0.74124   1.00
H1       0.19025    0.02798    0.73224   1.00
C3b      0.28488    0.04078    0.75968   1.00
C4       0.25028    0.02100    0.75032   1.00
O3       0.27456    -0.02167   0.68328   1.00
C5       0.15788    0.11280    0.74926   1.00
H2       0.14601    0.08609    0.76367   1.00
C5       0.12529    0.13326    0.72694   1.00
H2       0.16948    0.13274    0.77220   1.00
H2       0.10724    0.11068    0.71210   1.00
H2       0.13918    0.15093    0.70346   1.00
C5       0.09967    0.15918    0.75320   1.00
H2       0.08856    0.14176    0.77819   1.00
C5       0.06466    0.17547    0.73023   1.00
H2       0.11631    0.18493    0.76439   1.00
C5       0.25974    0.00983    0.62357   1.00
H2       0.27450    -0.01215   0.60471   1.00
H2       0.28268    0.03048    0.63378   1.00
C5       0.22814    0.03200    0.60059   1.00
C5       0.24533    0.04775    0.56219   1.00
H2       0.21762    -0.19286   0.93485   1.00
H2       0.26656    -0.18447   0.95684   1.00
H2       0.23159    -0.14323   0.95191   1.00
H2       0.46965    -0.03105   0.71266   1.00
H2       0.46505    -0.00551   0.76037   1.00
H2       0.43981    -0.05293   0.75241   1.00
H2       0.05763    0.20613    0.74102   1.00
H2       0.07219    0.17656    0.69786   1.00
H2       0.03826    0.15577    0.73482   1.00
H2       0.27833    0.04366    0.56233   1.00
H2       0.23221    0.03116    0.53654   1.00
H2       0.23818    0.08010    0.55929   1.00
C5       0.37570    0.23348    0.36782   1.00
H2       0.36240    0.20819    0.35255   1.00
H2       0.39669    0.22094    0.38910   1.00
C5       0.39717    0.25939    0.33806   1.00
C5       0.43784    0.24271    0.32877   1.00
H2       0.40050    0.28947    0.34985   1.00
O3       0.27109    0.31761    0.52000   1.00
C4       0.24968    0.24972    0.47900   1.00
C3c      0.28282    0.23868    0.45757   1.00
H1       0.30901    0.22983    0.47275   1.00
C3d      0.21567    0.26062    0.45865   1.00
C3       0.28295    0.23938    0.41646   1.00
O2       0.31469    0.22368    0.39752   1.00
C3       0.21594    0.26207    0.41773   1.00
H1       0.18962    0.27194    0.40343   1.00
C2       0.24933    0.25140    0.39561   1.00
C5       0.24089    0.34561    0.52121   1.00
H2       0.23373    0.35467    0.55162   1.00
H2       0.21374    0.33418    0.50734   1.00
C5       0.25478    0.38139    0.49871   1.00
H2       0.26298    0.37214    0.46863   1.00
H2       0.28168    0.39277    0.51302   1.00
C5       0.22290    0.41301    0.49738   1.00
H2       0.21438    0.42219    0.52732   1.00
H2       0.19652    0.40212    0.48189   1.00
C5       0.23807    0.44923    0.47555   1.00
C5       0.15909    0.24298    0.48895   1.00
C5       0.34218    0.25334    0.38930   1.00
H2       0.17441    0.22269    0.50912   1.00
H2       0.14911    0.22622    0.46288   1.00
H2       0.35286    0.26671    0.41700   1.00
H2       0.32962    0.27732    0.37105   1.00
H2       0.38108    0.26066    0.30970   1.00
H2       0.11747    0.21698    0.55753   1.00
H2       0.09320    0.20336    0.51237   1.00
C2       0.24887    0.25243    0.60395   1.00
C3       0.24004    0.21747    0.58403   1.00
O2       0.22188    0.18711    0.60326   1.00
C3       0.25973    0.28550    0.58174   1.00
H1       0.26764    0.31241    0.59615   1.00
C3a      0.24124    0.21658    0.54287   1.00
H1       0.23224    0.19025    0.52798   1.00
C3b      0.25968    0.28488    0.54078   1.00
C4       0.25032    0.25028    0.52100   1.00
O3       0.18328    0.27456    0.47833   1.00
C5       0.24926    0.15788    0.61280   1.00
H2       0.26367    0.14601    0.58609   1.00
C5       0.22694    0.12529    0.63326   1.00
H2       0.27220    0.16948    0.63274   1.00
H2       0.21210    0.10724    0.61068   1.00
H2       0.20346    0.13918    0.65093   1.00
C5       0.25320    0.09967    0.65918   1.00
H2       0.27819    0.08856    0.64176   1.00
C5       0.23023    0.06466    0.67547   1.00
H2       0.26439    0.11631    0.68493   1.00
C5       0.12357    0.25974    0.50983   1.00
H2       0.10471    0.27450    0.48785   1.00
H2       0.13378    0.28268    0.53048   1.00
C5       0.10059    0.22814    0.53200   1.00
C5       0.06219    0.24533    0.54775   1.00
H2       0.43485    0.21762    0.30714   1.00
H2       0.45684    0.26656    0.31553   1.00
H2       0.45191    0.23159    0.35677   1.00
H2       0.21266    0.46965    0.46895   1.00
H2       0.26037    0.46505    0.49449   1.00
H2       0.25241    0.43981    0.44707   1.00
H2       0.24102    0.05763    0.70613   1.00
H2       0.19786    0.07219    0.67656   1.00
H2       0.23482    0.03826    0.65577   1.00
H2       0.06233    0.27833    0.54366   1.00
H2       0.03654    0.23221    0.53116   1.00
H2       0.05929    0.23818    0.58010   1.00
C5       0.37570    0.76652    0.63218   1.00
H2       0.36240    0.79181    0.64745   1.00
H2       0.39669    0.77906    0.61090   1.00
C5       0.39717    0.74061    0.66194   1.00
C5       0.43784    0.75729    0.67123   1.00
H2       0.40050    0.71053    0.65015   1.00
O3       0.27109    0.68239    0.48000   1.00
C4       0.24968    0.75028    0.52100   1.00
C3c      0.28282    0.76132    0.54243   1.00
H1       0.30901    0.77017    0.52725   1.00
C3d      0.21567    0.73938    0.54135   1.00
C3       0.28295    0.76062    0.58354   1.00
O2       0.31469    0.77632    0.60248   1.00
C3       0.21594    0.73793    0.58227   1.00
H1       0.18962    0.72806    0.59657   1.00
C2       0.24933    0.74860    0.60439   1.00
C5       0.24089    0.65439    0.47879   1.00
H2       0.23373    0.64533    0.44838   1.00
H2       0.21374    0.66582    0.49266   1.00
C5       0.25478    0.61861    0.50129   1.00
H2       0.26298    0.62786    0.53137   1.00
H2       0.28168    0.60723    0.48698   1.00
C5       0.22290    0.58699    0.50262   1.00
H2       0.21438    0.57781    0.47268   1.00
H2       0.19652    0.59788    0.51811   1.00
C5       0.23807    0.55077    0.52445   1.00
C5       0.15909    0.75702    0.51105   1.00
C5       0.34218    0.74666    0.61070   1.00
H2       0.17441    0.77731    0.49088   1.00
H2       0.14911    0.77378    0.53712   1.00
H2       0.35286    0.73329    0.58300   1.00
H2       0.32962    0.72268    0.62895   1.00
H2       0.38108    0.73934    0.69030   1.00
H2       0.11747    0.78302    0.44247   1.00
H2       0.09320    0.79664    0.48763   1.00
C2       0.24887    0.74757    0.39605   1.00
C3       0.24004    0.78253    0.41597   1.00
O2       0.22188    0.81289    0.39674   1.00
C3       0.25973    0.71450    0.41826   1.00
H1       0.26764    0.68759    0.40385   1.00
C3a      0.24124    0.78342    0.45713   1.00
H1       0.23224    0.80975    0.47202   1.00
C3b      0.25968    0.71512    0.45922   1.00
C4       0.25032    0.74972    0.47900   1.00
O3       0.18328    0.72544    0.52167   1.00
C5       0.24926    0.84212    0.38720   1.00
H2       0.26367    0.85399    0.41391   1.00
C5       0.22694    0.87471    0.36674   1.00
H2       0.27220    0.83052    0.36726   1.00
H2       0.21210    0.89276    0.38932   1.00
H2       0.20346    0.86082    0.34907   1.00
C5       0.25320    0.90033    0.34082   1.00
H2       0.27819    0.91144    0.35824   1.00
C5       0.23023    0.93534    0.32453   1.00
H2       0.26439    0.88369    0.31507   1.00
C5       0.12357    0.74026    0.49017   1.00
H2       0.10471    0.72550    0.51215   1.00
H2       0.13378    0.71732    0.46952   1.00
C5       0.10059    0.77186    0.46800   1.00
C5       0.06219    0.75467    0.45225   1.00
H2       0.43485    0.78238    0.69286   1.00
H2       0.45684    0.73344    0.68447   1.00
H2       0.45191    0.76841    0.64323   1.00
H2       0.21266    0.53035    0.53105   1.00
H2       0.26037    0.53495    0.50551   1.00
H2       0.25241    0.56019    0.55293   1.00
H2       0.24102    0.94237    0.29387   1.00
H2       0.19786    0.92781    0.32344   1.00
H2       0.23482    0.96174    0.34423   1.00
H2       0.06233    0.72167    0.45634   1.00
H2       0.03654    0.76779    0.46884   1.00
H2       0.05929    0.76182    0.41990   1.00
C5       0.26652    1.13218    0.37570   1.00
H2       0.29181    1.14745    0.36240   1.00
H2       0.27906    1.11090    0.39669   1.00
C5       0.24061    1.16194    0.39717   1.00
C5       0.25729    1.17123    0.43784   1.00
H2       0.21053    1.15015    0.40050   1.00
O3       0.18239    0.98000    0.27109   1.00
C4       0.25028    1.02100    0.24968   1.00
C3c      0.26132    1.04243    0.28282   1.00
H1       0.27017    1.02725    0.30901   1.00
C3d      0.23938    1.04135    0.21567   1.00
C3       0.26062    1.08354    0.28295   1.00
O2       0.27632    1.10248    0.31469   1.00
C3       0.23793    1.08227    0.21594   1.00
H1       0.22806    1.09657    0.18962   1.00
C2       0.24860    1.10439    0.24933   1.00
C5       0.15439    0.97879    0.24089   1.00
H2       0.14533    0.94838    0.23373   1.00
H2       0.16582    0.99266    0.21374   1.00
C5       0.11861    1.00129    0.25478   1.00
H2       0.12786    1.03137    0.26298   1.00
H2       0.10723    0.98698    0.28168   1.00
C5       0.08699    1.00262    0.22290   1.00
H2       0.07781    0.97268    0.21438   1.00
H2       0.09788    1.01811    0.19652   1.00
C5       0.05077    1.02445    0.23807   1.00
C5       0.25702    1.01105    0.15909   1.00
C5       0.24666    1.11070    0.34218   1.00
H2       0.27731    0.99088    0.17441   1.00
H2       0.27378    1.03712    0.14911   1.00
H2       0.23329    1.08300    0.35286   1.00
H2       0.22268    1.12895    0.32962   1.00
H2       0.23934    1.19030    0.38108   1.00
H2       0.28302    0.94247    0.11747   1.00
H2       0.29664    0.98763    0.09320   1.00
C2       0.24757    0.89605    0.24887   1.00
C3       0.28253    0.91597    0.24004   1.00
O2       0.31289    0.89674    0.22188   1.00
C3       0.21450    0.91826    0.25973   1.00
H1       0.18759    0.90385    0.26764   1.00
C3a      0.28342    0.95713    0.24124   1.00
H1       0.30975    0.97202    0.23224   1.00
C3b      0.21512    0.95922    0.25968   1.00
C4       0.24972    0.97900    0.25032   1.00
O3       0.22544    1.02167    0.18328   1.00
C5       0.34212    0.88720    0.24926   1.00
H2       0.35399    0.91391    0.26367   1.00
C5       0.37471    0.86674    0.22694   1.00
H2       0.33052    0.86726    0.27220   1.00
H2       0.39276    0.88932    0.21210   1.00
H2       0.36082    0.84907    0.20346   1.00
C5       0.40033    0.84082    0.25320   1.00
H2       0.41144    0.85824    0.27819   1.00
C5       0.43534    0.82453    0.23023   1.00
H2       0.38369    0.81507    0.26439   1.00
C5       0.24026    0.99017    0.12357   1.00
H2       0.22550    1.01215    0.10471   1.00
H2       0.21732    0.96952    0.13378   1.00
C5       0.27186    0.96800    0.10059   1.00
C5       0.25467    0.95225    0.06219   1.00
H2       0.28238    1.19286    0.43485   1.00
H2       0.23344    1.18447    0.45684   1.00
H2       0.26841    1.14323    0.45191   1.00
H2       0.03035    1.03105    0.21266   1.00
H2       0.03495    1.00551    0.26037   1.00
H2       0.06019    1.05293    0.25241   1.00
H2       0.44237    0.79387    0.24102   1.00
H2       0.42781    0.82344    0.19786   1.00
H2       0.46174    0.84423    0.23482   1.00
H2       0.22167    0.95634    0.06233   1.00
H2       0.26779    0.96884    0.03654   1.00
H2       0.26182    0.91990    0.05929   1.00
C5       -0.13218   0.87570    0.23348   1.00
H2       -0.14745   0.86240    0.20819   1.00
H2       -0.11090   0.89669    0.22094   1.00
C5       -0.16194   0.89717    0.25939   1.00
C5       -0.17123   0.93784    0.24271   1.00
H2       -0.15015   0.90050    0.28947   1.00
O3       0.02000    0.77109    0.31761   1.00
C4       -0.02100   0.74968    0.24972   1.00
C3c      -0.04243   0.78282    0.23868   1.00
H1       -0.02725   0.80901    0.22983   1.00
C3d      -0.04135   0.71567    0.26062   1.00
C3       -0.08354   0.78295    0.23938   1.00
O2       -0.10248   0.81469    0.22368   1.00
C3       -0.08227   0.71594    0.26207   1.00
H1       -0.09657   0.68962    0.27194   1.00
C2       -0.10439   0.74933    0.25140   1.00
C5       0.02121    0.74089    0.34561   1.00
H2       0.05162    0.73373    0.35467   1.00
H2       0.00734    0.71374    0.33418   1.00
C5       -0.00129   0.75478    0.38139   1.00
H2       -0.03137   0.76298    0.37214   1.00
H2       0.01302    0.78168    0.39277   1.00
C5       -0.00262   0.72290    0.41301   1.00
H2       0.02732    0.71438    0.42219   1.00
H2       -0.01811   0.69652    0.40212   1.00
C5       -0.02445   0.73807    0.44923   1.00
C5       -0.01105   0.65909    0.24298   1.00
C5       -0.11070   0.84218    0.25334   1.00
H2       0.00912    0.67441    0.22269   1.00
H2       -0.03712   0.64911    0.22622   1.00
H2       -0.08300   0.85286    0.26671   1.00
H2       -0.12895   0.82962    0.27732   1.00
H2       -0.19030   0.88108    0.26066   1.00
H2       0.05753    0.61747    0.21698   1.00
H2       0.01237    0.59320    0.20336   1.00
C2       0.10395    0.74887    0.25243   1.00
C3       0.08403    0.74004    0.21747   1.00
O2       0.10326    0.72188    0.18711   1.00
C3       0.08174    0.75973    0.28550   1.00
H1       0.09615    0.76764    0.31241   1.00
C3a      0.04287    0.74124    0.21658   1.00
H1       0.02798    0.73224    0.19025   1.00
C3b      0.04078    0.75968    0.28488   1.00
C4       0.02100    0.75032    0.25028   1.00
O3       -0.02167   0.68328    0.27456   1.00
C5       0.11280    0.74926    0.15788   1.00
H2       0.08609    0.76367    0.14601   1.00
C5       0.13326    0.72694    0.12529   1.00
H2       0.13274    0.77220    0.16948   1.00
H2       0.11068    0.71210    0.10724   1.00
H2       0.15093    0.70346    0.13918   1.00
C5       0.15918    0.75320    0.09967   1.00
H2       0.14176    0.77819    0.08856   1.00
C5       0.17547    0.73023    0.06466   1.00
H2       0.18493    0.76439    0.11631   1.00
C5       0.00983    0.62357    0.25974   1.00
H2       -0.01215   0.60471    0.27450   1.00
H2       0.03048    0.63378    0.28268   1.00
C5       0.03200    0.60059    0.22814   1.00
C5       0.04775    0.56219    0.24533   1.00
H2       -0.19286   0.93485    0.21762   1.00
H2       -0.18447   0.95684    0.26656   1.00
H2       -0.14323   0.95191    0.23159   1.00
H2       -0.03105   0.71266    0.46965   1.00
H2       -0.00551   0.76037    0.46505   1.00
H2       -0.05293   0.75241    0.43981   1.00
H2       0.20613    0.74102    0.05763   1.00
H2       0.17656    0.69786    0.07219   1.00
H2       0.15577    0.73482    0.03826   1.00
H2       0.04366    0.56233    0.27833   1.00
H2       0.03116    0.53654    0.23221   1.00
H2       0.08010    0.55929    0.23818   1.00
C5       0.63218    0.87570    0.26652   1.00
H2       0.64745    0.86240    0.29181   1.00
H2       0.61090    0.89669    0.27906   1.00
C5       0.66194    0.89717    0.24061   1.00
C5       0.67123    0.93784    0.25729   1.00
H2       0.65015    0.90050    0.21053   1.00
O3       0.48000    0.77109    0.18239   1.00
C4       0.52100    0.74968    0.25028   1.00
C3c      0.54243    0.78282    0.26132   1.00
H1       0.52725    0.80901    0.27017   1.00
C3d      0.54135    0.71567    0.23938   1.00
C3       0.58354    0.78295    0.26062   1.00
O2       0.60248    0.81469    0.27632   1.00
C3       0.58227    0.71594    0.23793   1.00
H1       0.59657    0.68962    0.22806   1.00
C2       0.60439    0.74933    0.24860   1.00
C5       0.47879    0.74089    0.15439   1.00
H2       0.44838    0.73373    0.14533   1.00
H2       0.49266    0.71374    0.16582   1.00
C5       0.50129    0.75478    0.11861   1.00
H2       0.53137    0.76298    0.12786   1.00
H2       0.48698    0.78168    0.10723   1.00
C5       0.50262    0.72290    0.08699   1.00
H2       0.47268    0.71438    0.07781   1.00
H2       0.51811    0.69652    0.09788   1.00
C5       0.52445    0.73807    0.05077   1.00
C5       0.51105    0.65909    0.25702   1.00
C5       0.61070    0.84218    0.24666   1.00
H2       0.49088    0.67441    0.27731   1.00
H2       0.53712    0.64911    0.27378   1.00
H2       0.58300    0.85286    0.23329   1.00
H2       0.62895    0.82962    0.22268   1.00
H2       0.69030    0.88108    0.23934   1.00
H2       0.44247    0.61747    0.28302   1.00
H2       0.48763    0.59320    0.29664   1.00
C2       0.39605    0.74887    0.24757   1.00
C3       0.41597    0.74004    0.28253   1.00
O2       0.39674    0.72188    0.31289   1.00
C3       0.41826    0.75973    0.21450   1.00
H1       0.40385    0.76764    0.18759   1.00
C3a      0.45713    0.74124    0.28342   1.00
H1       0.47202    0.73224    0.30975   1.00
C3b      0.45922    0.75968    0.21512   1.00
C4       0.47900    0.75032    0.24972   1.00
O3       0.52167    0.68328    0.22544   1.00
C5       0.38720    0.74926    0.34212   1.00
H2       0.41391    0.76367    0.35399   1.00
C5       0.36674    0.72694    0.37471   1.00
H2       0.36726    0.77220    0.33052   1.00
H2       0.38932    0.71210    0.39276   1.00
H2       0.34907    0.70346    0.36082   1.00
C5       0.34082    0.75320    0.40033   1.00
H2       0.35824    0.77819    0.41144   1.00
C5       0.32453    0.73023    0.43534   1.00
H2       0.31507    0.76439    0.38369   1.00
C5       0.49017    0.62357    0.24026   1.00
H2       0.51215    0.60471    0.22550   1.00
H2       0.46952    0.63378    0.21732   1.00
C5       0.46800    0.60059    0.27186   1.00
C5       0.45225    0.56219    0.25467   1.00
H2       0.69286    0.93485    0.28238   1.00
H2       0.68447    0.95684    0.23344   1.00
H2       0.64323    0.95191    0.26841   1.00
H2       0.53105    0.71266    0.03035   1.00
H2       0.50551    0.76037    0.03495   1.00
H2       0.55293    0.75241    0.06019   1.00
H2       0.29387    0.74102    0.44237   1.00
H2       0.32344    0.69786    0.42781   1.00
H2       0.34423    0.73482    0.46174   1.00
H2       0.45634    0.56233    0.22167   1.00
H2       0.46884    0.53654    0.26779   1.00
H2       0.41990    0.55929    0.26182   1.00
C5       0.23348    0.36782    0.37570   1.00
H2       0.20819    0.35255    0.36240   1.00
H2       0.22094    0.38910    0.39669   1.00
C5       0.25939    0.33806    0.39717   1.00
C5       0.24271    0.32877    0.43784   1.00
H2       0.28947    0.34985    0.40050   1.00
O3       0.31761    0.52000    0.27109   1.00
C4       0.24972    0.47900    0.24968   1.00
C3c      0.23868    0.45757    0.28282   1.00
H1       0.22983    0.47275    0.30901   1.00
C3d      0.26062    0.45865    0.21567   1.00
C3       0.23938    0.41646    0.28295   1.00
O2       0.22368    0.39752    0.31469   1.00
C3       0.26207    0.41773    0.21594   1.00
H1       0.27194    0.40343    0.18962   1.00
C2       0.25140    0.39561    0.24933   1.00
C5       0.34561    0.52121    0.24089   1.00
H2       0.35467    0.55162    0.23373   1.00
H2       0.33418    0.50734    0.21374   1.00
C5       0.38139    0.49871    0.25478   1.00
H2       0.37214    0.46863    0.26298   1.00
H2       0.39277    0.51302    0.28168   1.00
C5       0.41301    0.49738    0.22290   1.00
H2       0.42219    0.52732    0.21438   1.00
H2       0.40212    0.48189    0.19652   1.00
C5       0.44923    0.47555    0.23807   1.00
C5       0.24298    0.48895    0.15909   1.00
C5       0.25334    0.38930    0.34218   1.00
H2       0.22269    0.50912    0.17441   1.00
H2       0.22622    0.46288    0.14911   1.00
H2       0.26671    0.41700    0.35286   1.00
H2       0.27732    0.37105    0.32962   1.00
H2       0.26066    0.30970    0.38108   1.00
H2       0.21698    0.55753    0.11747   1.00
H2       0.20336    0.51237    0.09320   1.00
C2       0.25243    0.60395    0.24887   1.00
C3       0.21747    0.58403    0.24004   1.00
O2       0.18711    0.60326    0.22188   1.00
C3       0.28550    0.58174    0.25973   1.00
H1       0.31241    0.59615    0.26764   1.00
C3a      0.21658    0.54287    0.24124   1.00
H1       0.19025    0.52798    0.23224   1.00
C3b      0.28488    0.54078    0.25968   1.00
C4       0.25028    0.52100    0.25032   1.00
O3       0.27456    0.47833    0.18328   1.00
C5       0.15788    0.61280    0.24926   1.00
H2       0.14601    0.58609    0.26367   1.00
C5       0.12529    0.63326    0.22694   1.00
H2       0.16948    0.63274    0.27220   1.00
H2       0.10724    0.61068    0.21210   1.00
H2       0.13918    0.65093    0.20346   1.00
C5       0.09967    0.65918    0.25320   1.00
H2       0.08856    0.64176    0.27819   1.00
C5       0.06466    0.67547    0.23023   1.00
H2       0.11631    0.68493    0.26439   1.00
C5       0.25974    0.50983    0.12357   1.00
H2       0.27450    0.48785    0.10471   1.00
H2       0.28268    0.53048    0.13378   1.00
C5       0.22814    0.53200    0.10059   1.00
C5       0.24533    0.54775    0.06219   1.00
H2       0.21762    0.30714    0.43485   1.00
H2       0.26656    0.31553    0.45684   1.00
H2       0.23159    0.35677    0.45191   1.00
H2       0.46965    0.46895    0.21266   1.00
H2       0.46505    0.49449    0.26037   1.00
H2       0.43981    0.44707    0.25241   1.00
H2       0.05763    0.70613    0.24102   1.00
H2       0.07219    0.67656    0.19786   1.00
H2       0.03826    0.65577    0.23482   1.00
H2       0.27833    0.54366    0.06233   1.00
H2       0.23221    0.53116    0.03654   1.00
H2       0.23818    0.58010    0.05929   1.00
C5       0.37570    0.73348    -0.13218   1.00
H2       0.36240    0.70819    -0.14745   1.00
H2       0.39669    0.72094    -0.11090   1.00
C5       0.39717    0.75939    -0.16194   1.00
C5       0.43784    0.74271    -0.17123   1.00
H2       0.40050    0.78947    -0.15015   1.00
O3       0.27109    0.81761    0.02000   1.00
C4       0.24968    0.74972    -0.02100   1.00
C3c      0.28282    0.73868    -0.04243   1.00
H1       0.30901    0.72983    -0.02725   1.00
C3d      0.21567    0.76062    -0.04135   1.00
C3       0.28295    0.73938    -0.08354   1.00
O2       0.31469    0.72368    -0.10248   1.00
C3       0.21594    0.76207    -0.08227   1.00
H1       0.18962    0.77194    -0.09657   1.00
C2       0.24933    0.75140    -0.10439   1.00
C5       0.24089    0.84561    0.02121   1.00
H2       0.23373    0.85467    0.05162   1.00
H2       0.21374    0.83418    0.00734   1.00
C5       0.25478    0.88139    -0.00129   1.00
H2       0.26298    0.87214    -0.03137   1.00
H2       0.28168    0.89277    0.01302   1.00
C5       0.22290    0.91301    -0.00262   1.00
H2       0.21438    0.92219    0.02732   1.00
H2       0.19652    0.90212    -0.01811   1.00
C5       0.23807    0.94923    -0.02445   1.00
C5       0.15909    0.74298    -0.01105   1.00
C5       0.34218    0.75334    -0.11070   1.00
H2       0.17441    0.72269    0.00912   1.00
H2       0.14911    0.72622    -0.03712   1.00
H2       0.35286    0.76671    -0.08300   1.00
H2       0.32962    0.77732    -0.12895   1.00
H2       0.38108    0.76066    -0.19030   1.00
H2       0.11747    0.71698    0.05753   1.00
H2       0.09320    0.70336    0.01237   1.00
C2       0.24887    0.75243    0.10395   1.00
C3       0.24004    0.71747    0.08403   1.00
O2       0.22188    0.68711    0.10326   1.00
C3       0.25973    0.78550    0.08174   1.00
H1       0.26764    0.81241    0.09615   1.00
C3a      0.24124    0.71658    0.04287   1.00
H1       0.23224    0.69025    0.02798   1.00
C3b      0.25968    0.78488    0.04078   1.00
C4       0.25032    0.75028    0.02100   1.00
O3       0.18328    0.77456    -0.02167   1.00
C5       0.24926    0.65788    0.11280   1.00
H2       0.26367    0.64601    0.08609   1.00
C5       0.22694    0.62529    0.13326   1.00
H2       0.27220    0.66948    0.13274   1.00
H2       0.21210    0.60724    0.11068   1.00
H2       0.20346    0.63918    0.15093   1.00
C5       0.25320    0.59967    0.15918   1.00
H2       0.27819    0.58856    0.14176   1.00
C5       0.23023    0.56466    0.17547   1.00
H2       0.26439    0.61631    0.18493   1.00
C5       0.12357    0.75974    0.00983   1.00
H2       0.10471    0.77450    -0.01215   1.00
H2       0.13378    0.78268    0.03048   1.00
C5       0.10059    0.72814    0.03200   1.00
C5       0.06219    0.74533    0.04775   1.00
H2       0.43485    0.71762    -0.19286   1.00
H2       0.45684    0.76656    -0.18447   1.00
H2       0.45191    0.73159    -0.14323   1.00
H2       0.21266    0.96965    -0.03105   1.00
H2       0.26037    0.96505    -0.00551   1.00
H2       0.25241    0.93981    -0.05293   1.00
H2       0.24102    0.55763    0.20613   1.00
H2       0.19786    0.57219    0.17656   1.00
H2       0.23482    0.53826    0.15577   1.00
H2       0.06233    0.77833    0.04366   1.00
H2       0.03654    0.73221    0.03116   1.00
H2       0.05929    0.73818    0.08010   1.00
C5       0.87570    0.26652    0.63218   1.00
H2       0.86240    0.29181    0.64745   1.00
H2       0.89669    0.27906    0.61090   1.00
C5       0.89717    0.24061    0.66194   1.00
C5       0.93784    0.25729    0.67123   1.00
H2       0.90050    0.21053    0.65015   1.00
O3       0.77109    0.18239    0.48000   1.00
C4       0.74968    0.25028    0.52100   1.00
C3c      0.78282    0.26132    0.54243   1.00
H1       0.80901    0.27017    0.52725   1.00
C3d      0.71567    0.23938    0.54135   1.00
C3       0.78295    0.26062    0.58354   1.00
O2       0.81469    0.27632    0.60248   1.00
C3       0.71594    0.23793    0.58227   1.00
H1       0.68962    0.22806    0.59657   1.00
C2       0.74933    0.24860    0.60439   1.00
C5       0.74089    0.15439    0.47879   1.00
H2       0.73373    0.14533    0.44838   1.00
H2       0.71374    0.16582    0.49266   1.00
C5       0.75478    0.11861    0.50129   1.00
H2       0.76298    0.12786    0.53137   1.00
H2       0.78168    0.10723    0.48698   1.00
C5       0.72290    0.08699    0.50262   1.00
H2       0.71438    0.07781    0.47268   1.00
H2       0.69652    0.09788    0.51811   1.00
C5       0.73807    0.05077    0.52445   1.00
C5       0.65909    0.25702    0.51105   1.00
C5       0.84218    0.24666    0.61070   1.00
H2       0.67441    0.27731    0.49088   1.00
H2       0.64911    0.27378    0.53712   1.00
H2       0.85286    0.23329    0.58300   1.00
H2       0.82962    0.22268    0.62895   1.00
H2       0.88108    0.23934    0.69030   1.00
H2       0.61747    0.28302    0.44247   1.00
H2       0.59320    0.29664    0.48763   1.00
C2       0.74887    0.24757    0.39605   1.00
C3       0.74004    0.28253    0.41597   1.00
O2       0.72188    0.31289    0.39674   1.00
C3       0.75973    0.21450    0.41826   1.00
H1       0.76764    0.18759    0.40385   1.00
C3a      0.74124    0.28342    0.45713   1.00
H1       0.73224    0.30975    0.47202   1.00
C3b      0.75968    0.21512    0.45922   1.00
C4       0.75032    0.24972    0.47900   1.00
O3       0.68328    0.22544    0.52167   1.00
C5       0.74926    0.34212    0.38720   1.00
H2       0.76367    0.35399    0.41391   1.00
C5       0.72694    0.37471    0.36674   1.00
H2       0.77220    0.33052    0.36726   1.00
H2       0.71210    0.39276    0.38932   1.00
H2       0.70346    0.36082    0.34907   1.00
C5       0.75320    0.40033    0.34082   1.00
H2       0.77819    0.41144    0.35824   1.00
C5       0.73023    0.43534    0.32453   1.00
H2       0.76439    0.38369    0.31507   1.00
C5       0.62357    0.24026    0.49017   1.00
H2       0.60471    0.22550    0.51215   1.00
H2       0.63378    0.21732    0.46952   1.00
C5       0.60059    0.27186    0.46800   1.00
C5       0.56219    0.25467    0.45225   1.00
H2       0.93485    0.28238    0.69286   1.00
H2       0.95684    0.23344    0.68447   1.00
H2       0.95191    0.26841    0.64323   1.00
H2       0.71266    0.03035    0.53105   1.00
H2       0.76037    0.03495    0.50551   1.00
H2       0.75241    0.06019    0.55293   1.00
H2       0.74102    0.44237    0.29387   1.00
H2       0.69786    0.42781    0.32344   1.00
H2       0.73482    0.46174    0.34423   1.00
H2       0.56233    0.22167    0.45634   1.00
H2       0.53654    0.26779    0.46884   1.00
H2       0.55929    0.26182    0.41990   1.00
C5       0.76652    0.63218    0.37570   1.00
H2       0.79181    0.64745    0.36240   1.00
H2       0.77906    0.61090    0.39669   1.00
C5       0.74061    0.66194    0.39717   1.00
C5       0.75729    0.67123    0.43784   1.00
H2       0.71053    0.65015    0.40050   1.00
O3       0.68239    0.48000    0.27109   1.00
C4       0.75028    0.52100    0.24968   1.00
C3c      0.76132    0.54243    0.28282   1.00
H1       0.77017    0.52725    0.30901   1.00
C3d      0.73938    0.54135    0.21567   1.00
C3       0.76062    0.58354    0.28295   1.00
O2       0.77632    0.60248    0.31469   1.00
C3       0.73793    0.58227    0.21594   1.00
H1       0.72806    0.59657    0.18962   1.00
C2       0.74860    0.60439    0.24933   1.00
C5       0.65439    0.47879    0.24089   1.00
H2       0.64533    0.44838    0.23373   1.00
H2       0.66582    0.49266    0.21374   1.00
C5       0.61861    0.50129    0.25478   1.00
H2       0.62786    0.53137    0.26298   1.00
H2       0.60723    0.48698    0.28168   1.00
C5       0.58699    0.50262    0.22290   1.00
H2       0.57781    0.47268    0.21438   1.00
H2       0.59788    0.51811    0.19652   1.00
C5       0.55077    0.52445    0.23807   1.00
C5       0.75702    0.51105    0.15909   1.00
C5       0.74666    0.61070    0.34218   1.00
H2       0.77731    0.49088    0.17441   1.00
H2       0.77378    0.53712    0.14911   1.00
H2       0.73329    0.58300    0.35286   1.00
H2       0.72268    0.62895    0.32962   1.00
H2       0.73934    0.69030    0.38108   1.00
H2       0.78302    0.44247    0.11747   1.00
H2       0.79664    0.48763    0.09320   1.00
C2       0.74757    0.39605    0.24887   1.00
C3       0.78253    0.41597    0.24004   1.00
O2       0.81289    0.39674    0.22188   1.00
C3       0.71450    0.41826    0.25973   1.00
H1       0.68759    0.40385    0.26764   1.00
C3a      0.78342    0.45713    0.24124   1.00
H1       0.80975    0.47202    0.23224   1.00
C3b      0.71512    0.45922    0.25968   1.00
C4       0.74972    0.47900    0.25032   1.00
O3       0.72544    0.52167    0.18328   1.00
C5       0.84212    0.38720    0.24926   1.00
H2       0.85399    0.41391    0.26367   1.00
C5       0.87471    0.36674    0.22694   1.00
H2       0.83052    0.36726    0.27220   1.00
H2       0.89276    0.38932    0.21210   1.00
H2       0.86082    0.34907    0.20346   1.00
C5       0.90033    0.34082    0.25320   1.00
H2       0.91144    0.35824    0.27819   1.00
C5       0.93534    0.32453    0.23023   1.00
H2       0.88369    0.31507    0.26439   1.00
C5       0.74026    0.49017    0.12357   1.00
H2       0.72550    0.51215    0.10471   1.00
H2       0.71732    0.46952    0.13378   1.00
C5       0.77186    0.46800    0.10059   1.00
C5       0.75467    0.45225    0.06219   1.00
H2       0.78238    0.69286    0.43485   1.00
H2       0.73344    0.68447    0.45684   1.00
H2       0.76841    0.64323    0.45191   1.00
H2       0.53035    0.53105    0.21266   1.00
H2       0.53495    0.50551    0.26037   1.00
H2       0.56019    0.55293    0.25241   1.00
H2       0.94237    0.29387    0.24102   1.00
H2       0.92781    0.32344    0.19786   1.00
H2       0.96174    0.34423    0.23482   1.00
H2       0.72167    0.45634    0.06233   1.00
H2       0.76779    0.46884    0.03654   1.00
H2       0.76182    0.41990    0.05929   1.00
C5       0.36782    0.37570    0.23348   1.00
H2       0.35255    0.36240    0.20819   1.00
H2       0.38910    0.39669    0.22094   1.00
C5       0.33806    0.39717    0.25939   1.00
C5       0.32877    0.43784    0.24271   1.00
H2       0.34985    0.40050    0.28947   1.00
O3       0.52000    0.27109    0.31761   1.00
C4       0.47900    0.24968    0.24972   1.00
C3c      0.45757    0.28282    0.23868   1.00
H1       0.47275    0.30901    0.22983   1.00
C3d      0.45865    0.21567    0.26062   1.00
C3       0.41646    0.28295    0.23938   1.00
O2       0.39752    0.31469    0.22368   1.00
C3       0.41773    0.21594    0.26207   1.00
H1       0.40343    0.18962    0.27194   1.00
C2       0.39561    0.24933    0.25140   1.00
C5       0.52121    0.24089    0.34561   1.00
H2       0.55162    0.23373    0.35467   1.00
H2       0.50734    0.21374    0.33418   1.00
C5       0.49871    0.25478    0.38139   1.00
H2       0.46863    0.26298    0.37214   1.00
H2       0.51302    0.28168    0.39277   1.00
C5       0.49738    0.22290    0.41301   1.00
H2       0.52732    0.21438    0.42219   1.00
H2       0.48189    0.19652    0.40212   1.00
C5       0.47555    0.23807    0.44923   1.00
C5       0.48895    0.15909    0.24298   1.00
C5       0.38930    0.34218    0.25334   1.00
H2       0.50912    0.17441    0.22269   1.00
H2       0.46288    0.14911    0.22622   1.00
H2       0.41700    0.35286    0.26671   1.00
H2       0.37105    0.32962    0.27732   1.00
H2       0.30970    0.38108    0.26066   1.00
H2       0.55753    0.11747    0.21698   1.00
H2       0.51237    0.09320    0.20336   1.00
C2       0.60395    0.24887    0.25243   1.00
C3       0.58403    0.24004    0.21747   1.00
O2       0.60326    0.22188    0.18711   1.00
C3       0.58174    0.25973    0.28550   1.00
H1       0.59615    0.26764    0.31241   1.00
C3a      0.54287    0.24124    0.21658   1.00
H1       0.52798    0.23224    0.19025   1.00
C3b      0.54078    0.25968    0.28488   1.00
C4       0.52100    0.25032    0.25028   1.00
O3       0.47833    0.18328    0.27456   1.00
C5       0.61280    0.24926    0.15788   1.00
H2       0.58609    0.26367    0.14601   1.00
C5       0.63326    0.22694    0.12529   1.00
H2       0.63274    0.27220    0.16948   1.00
H2       0.61068    0.21210    0.10724   1.00
H2       0.65093    0.20346    0.13918   1.00
C5       0.65918    0.25320    0.09967   1.00
H2       0.64176    0.27819    0.08856   1.00
C5       0.67547    0.23023    0.06466   1.00
H2       0.68493    0.26439    0.11631   1.00
C5       0.50983    0.12357    0.25974   1.00
H2       0.48785    0.10471    0.27450   1.00
H2       0.53048    0.13378    0.28268   1.00
C5       0.53200    0.10059    0.22814   1.00
C5       0.54775    0.06219    0.24533   1.00
H2       0.30714    0.43485    0.21762   1.00
H2       0.31553    0.45684    0.26656   1.00
H2       0.35677    0.45191    0.23159   1.00
H2       0.46895    0.21266    0.46965   1.00
H2       0.49449    0.26037    0.46505   1.00
H2       0.44707    0.25241    0.43981   1.00
H2       0.70613    0.24102    0.05763   1.00
H2       0.67656    0.19786    0.07219   1.00
H2       0.65577    0.23482    0.03826   1.00
H2       0.54366    0.06233    0.27833   1.00
H2       0.53116    0.03654    0.23221   1.00
H2       0.58010    0.05929    0.23818   1.00
C5       1.13218    0.37570    0.26652   1.00
H2       1.14745    0.36240    0.29181   1.00
H2       1.11090    0.39669    0.27906   1.00
C5       1.16194    0.39717    0.24061   1.00
C5       1.17123    0.43784    0.25729   1.00
H2       1.15015    0.40050    0.21053   1.00
O3       0.98000    0.27109    0.18239   1.00
C4       1.02100    0.24968    0.25028   1.00
C3c      1.04243    0.28282    0.26132   1.00
H1       1.02725    0.30901    0.27017   1.00
C3d      1.04135    0.21567    0.23938   1.00
C3       1.08354    0.28295    0.26062   1.00
O2       1.10248    0.31469    0.27632   1.00
C3       1.08227    0.21594    0.23793   1.00
H1       1.09657    0.18962    0.22806   1.00
C2       1.10439    0.24933    0.24860   1.00
C5       0.97879    0.24089    0.15439   1.00
H2       0.94838    0.23373    0.14533   1.00
H2       0.99266    0.21374    0.16582   1.00
C5       1.00129    0.25478    0.11861   1.00
H2       1.03137    0.26298    0.12786   1.00
H2       0.98698    0.28168    0.10723   1.00
C5       1.00262    0.22290    0.08699   1.00
H2       0.97268    0.21438    0.07781   1.00
H2       1.01811    0.19652    0.09788   1.00
C5       1.02445    0.23807    0.05077   1.00
C5       1.01105    0.15909    0.25702   1.00
C5       1.11070    0.34218    0.24666   1.00
H2       0.99088    0.17441    0.27731   1.00
H2       1.03712    0.14911    0.27378   1.00
H2       1.08300    0.35286    0.23329   1.00
H2       1.12895    0.32962    0.22268   1.00
H2       1.19030    0.38108    0.23934   1.00
H2       0.94247    0.11747    0.28302   1.00
H2       0.98763    0.09320    0.29664   1.00
C2       0.89605    0.24887    0.24757   1.00
C3       0.91597    0.24004    0.28253   1.00
O2       0.89674    0.22188    0.31289   1.00
C3       0.91826    0.25973    0.21450   1.00
H1       0.90385    0.26764    0.18759   1.00
C3a      0.95713    0.24124    0.28342   1.00
H1       0.97202    0.23224    0.30975   1.00
C3b      0.95922    0.25968    0.21512   1.00
C4       0.97900    0.25032    0.24972   1.00
O3       1.02167    0.18328    0.22544   1.00
C5       0.88720    0.24926    0.34212   1.00
H2       0.91391    0.26367    0.35399   1.00
C5       0.86674    0.22694    0.37471   1.00
H2       0.86726    0.27220    0.33052   1.00
H2       0.88932    0.21210    0.39276   1.00
H2       0.84907    0.20346    0.36082   1.00
C5       0.84082    0.25320    0.40033   1.00
H2       0.85824    0.27819    0.41144   1.00
C5       0.82453    0.23023    0.43534   1.00
H2       0.81507    0.26439    0.38369   1.00
C5       0.99017    0.12357    0.24026   1.00
H2       1.01215    0.10471    0.22550   1.00
H2       0.96952    0.13378    0.21732   1.00
C5       0.96800    0.10059    0.27186   1.00
C5       0.95225    0.06219    0.25467   1.00
H2       1.19286    0.43485    0.28238   1.00
H2       1.18447    0.45684    0.23344   1.00
H2       1.14323    0.45191    0.26841   1.00
H2       1.03105    0.21266    0.03035   1.00
H2       1.00551    0.26037    0.03495   1.00
H2       1.05293    0.25241    0.06019   1.00
H2       0.79387    0.24102    0.44237   1.00
H2       0.82344    0.19786    0.42781   1.00
H2       0.84423    0.23482    0.46174   1.00
H2       0.95634    0.06233    0.22167   1.00
H2       0.96884    0.03654    0.26779   1.00
H2       0.91990    0.05929    0.26182   1.00
C5       0.73348    -0.13218   0.37570   1.00
H2       0.70819    -0.14745   0.36240   1.00
H2       0.72094    -0.11090   0.39669   1.00
C5       0.75939    -0.16194   0.39717   1.00
C5       0.74271    -0.17123   0.43784   1.00
H2       0.78947    -0.15015   0.40050   1.00
O3       0.81761    0.02000    0.27109   1.00
C4       0.74972    -0.02100   0.24968   1.00
C3c      0.73868    -0.04243   0.28282   1.00
H1       0.72983    -0.02725   0.30901   1.00
C3d      0.76062    -0.04135   0.21567   1.00
C3       0.73938    -0.08354   0.28295   1.00
O2       0.72368    -0.10248   0.31469   1.00
C3       0.76207    -0.08227   0.21594   1.00
H1       0.77194    -0.09657   0.18962   1.00
C2       0.75140    -0.10439   0.24933   1.00
C5       0.84561    0.02121    0.24089   1.00
H2       0.85467    0.05162    0.23373   1.00
H2       0.83418    0.00734    0.21374   1.00
C5       0.88139    -0.00129   0.25478   1.00
H2       0.87214    -0.03137   0.26298   1.00
H2       0.89277    0.01302    0.28168   1.00
C5       0.91301    -0.00262   0.22290   1.00
H2       0.92219    0.02732    0.21438   1.00
H2       0.90212    -0.01811   0.19652   1.00
C5       0.94923    -0.02445   0.23807   1.00
C5       0.74298    -0.01105   0.15909   1.00
C5       0.75334    -0.11070   0.34218   1.00
H2       0.72269    0.00912    0.17441   1.00
H2       0.72622    -0.03712   0.14911   1.00
H2       0.76671    -0.08300   0.35286   1.00
H2       0.77732    -0.12895   0.32962   1.00
H2       0.76066    -0.19030   0.38108   1.00
H2       0.71698    0.05753    0.11747   1.00
H2       0.70336    0.01237    0.09320   1.00
C2       0.75243    0.10395    0.24887   1.00
C3       0.71747    0.08403    0.24004   1.00
O2       0.68711    0.10326    0.22188   1.00
C3       0.78550    0.08174    0.25973   1.00
H1       0.81241    0.09615    0.26764   1.00
C3a      0.71658    0.04287    0.24124   1.00
H1       0.69025    0.02798    0.23224   1.00
C3b      0.78488    0.04078    0.25968   1.00
C4       0.75028    0.02100    0.25032   1.00
O3       0.77456    -0.02167   0.18328   1.00
C5       0.65788    0.11280    0.24926   1.00
H2       0.64601    0.08609    0.26367   1.00
C5       0.62529    0.13326    0.22694   1.00
H2       0.66948    0.13274    0.27220   1.00
H2       0.60724    0.11068    0.21210   1.00
H2       0.63918    0.15093    0.20346   1.00
C5       0.59967    0.15918    0.25320   1.00
H2       0.58856    0.14176    0.27819   1.00
C5       0.56466    0.17547    0.23023   1.00
H2       0.61631    0.18493    0.26439   1.00
C5       0.75974    0.00983    0.12357   1.00
H2       0.77450    -0.01215   0.10471   1.00
H2       0.78268    0.03048    0.13378   1.00
C5       0.72814    0.03200    0.10059   1.00
C5       0.74533    0.04775    0.06219   1.00
H2       0.71762    -0.19286   0.43485   1.00
H2       0.76656    -0.18447   0.45684   1.00
H2       0.73159    -0.14323   0.45191   1.00
H2       0.96965    -0.03105   0.21266   1.00
H2       0.96505    -0.00551   0.26037   1.00
H2       0.93981    -0.05293   0.25241   1.00
H2       0.55763    0.20613    0.24102   1.00
H2       0.57219    0.17656    0.19786   1.00
H2       0.53826    0.15577    0.23482   1.00
H2       0.77833    0.04366    0.06233   1.00
H2       0.73221    0.03116    0.03654   1.00
H2       0.73818    0.08010    0.05929   1.00
C5       0.87570    0.23348    -0.13218   1.00
H2       0.86240    0.20819    -0.14745   1.00
H2       0.89669    0.22094    -0.11090   1.00
C5       0.89717    0.25939    -0.16194   1.00
C5       0.93784    0.24271    -0.17123   1.00
H2       0.90050    0.28947    -0.15015   1.00
O3       0.77109    0.31761    0.02000   1.00
C4       0.74968    0.24972    -0.02100   1.00
C3c      0.78282    0.23868    -0.04243   1.00
H1       0.80901    0.22983    -0.02725   1.00
C3d      0.71567    0.26062    -0.04135   1.00
C3       0.78295    0.23938    -0.08354   1.00
O2       0.81469    0.22368    -0.10248   1.00
C3       0.71594    0.26207    -0.08227   1.00
H1       0.68962    0.27194    -0.09657   1.00
C2       0.74933    0.25140    -0.10439   1.00
C5       0.74089    0.34561    0.02121   1.00
H2       0.73373    0.35467    0.05162   1.00
H2       0.71374    0.33418    0.00734   1.00
C5       0.75478    0.38139    -0.00129   1.00
H2       0.76298    0.37214    -0.03137   1.00
H2       0.78168    0.39277    0.01302   1.00
C5       0.72290    0.41301    -0.00262   1.00
H2       0.71438    0.42219    0.02732   1.00
H2       0.69652    0.40212    -0.01811   1.00
C5       0.73807    0.44923    -0.02445   1.00
C5       0.65909    0.24298    -0.01105   1.00
C5       0.84218    0.25334    -0.11070   1.00
H2       0.67441    0.22269    0.00912   1.00
H2       0.64911    0.22622    -0.03712   1.00
H2       0.85286    0.26671    -0.08300   1.00
H2       0.82962    0.27732    -0.12895   1.00
H2       0.88108    0.26066    -0.19030   1.00
H2       0.61747    0.21698    0.05753   1.00
H2       0.59320    0.20336    0.01237   1.00
C2       0.74887    0.25243    0.10395   1.00
C3       0.74004    0.21747    0.08403   1.00
O2       0.72188    0.18711    0.10326   1.00
C3       0.75973    0.28550    0.08174   1.00
H1       0.76764    0.31241    0.09615   1.00
C3a      0.74124    0.21658    0.04287   1.00
H1       0.73224    0.19025    0.02798   1.00
C3b      0.75968    0.28488    0.04078   1.00
C4       0.75032    0.25028    0.02100   1.00
O3       0.68328    0.27456    -0.02167   1.00
C5       0.74926    0.15788    0.11280   1.00
H2       0.76367    0.14601    0.08609   1.00
C5       0.72694    0.12529    0.13326   1.00
H2       0.77220    0.16948    0.13274   1.00
H2       0.71210    0.10724    0.11068   1.00
H2       0.70346    0.13918    0.15093   1.00
C5       0.75320    0.09967    0.15918   1.00
H2       0.77819    0.08856    0.14176   1.00
C5       0.73023    0.06466    0.17547   1.00
H2       0.76439    0.11631    0.18493   1.00
C5       0.62357    0.25974    0.00983   1.00
H2       0.60471    0.27450    -0.01215   1.00
H2       0.63378    0.28268    0.03048   1.00
C5       0.60059    0.22814    0.03200   1.00
C5       0.56219    0.24533    0.04775   1.00
H2       0.93485    0.21762    -0.19286   1.00
H2       0.95684    0.26656    -0.18447   1.00
H2       0.95191    0.23159    -0.14323   1.00
H2       0.71266    0.46965    -0.03105   1.00
H2       0.76037    0.46505    -0.00551   1.00
H2       0.75241    0.43981    -0.05293   1.00
H2       0.74102    0.05763    0.20613   1.00
H2       0.69786    0.07219    0.17656   1.00
H2       0.73482    0.03826    0.15577   1.00
H2       0.56233    0.27833    0.04366   1.00
H2       0.53654    0.23221    0.03116   1.00
H2       0.55929    0.23818    0.08010   1.00
C5       1.12570    1.01652    1.38218   1.00
H2       1.11240    1.04181    1.39745   1.00
H2       1.14669    1.02906    1.36090   1.00
C5       1.14717    0.99061    1.41194   1.00
C5       1.18784    1.00729    1.42123   1.00
H2       1.15050    0.96053    1.40015   1.00
O3       1.02109    0.93239    1.23000   1.00
C4       0.99968    1.00028    1.27100   1.00
C3c      1.03282    1.01132    1.29243   1.00
H1       1.05901    1.02017    1.27725   1.00
C3d      0.96567    0.98938    1.29135   1.00
C3       1.03295    1.01062    1.33354   1.00
O2       1.06469    1.02632    1.35248   1.00
C3       0.96594    0.98793    1.33227   1.00
H1       0.93962    0.97806    1.34657   1.00
C2       0.99933    0.99860    1.35439   1.00
C5       0.99089    0.90439    1.22879   1.00
H2       0.98373    0.89533    1.19838   1.00
H2       0.96374    0.91582    1.24266   1.00
C5       1.00478    0.86861    1.25129   1.00
H2       1.01298    0.87786    1.28137   1.00
H2       1.03168    0.85723    1.23698   1.00
C5       0.97290    0.83699    1.25262   1.00
H2       0.96438    0.82781    1.22268   1.00
H2       0.94652    0.84788    1.26811   1.00
C5       0.98807    0.80077    1.27445   1.00
C5       0.90909    1.00702    1.26105   1.00
C5       1.09218    0.99666    1.36070   1.00
H2       0.92441    1.02731    1.24088   1.00
H2       0.89911    1.02378    1.28712   1.00
H2       1.10286    0.98329    1.33300   1.00
H2       1.07962    0.97268    1.37895   1.00
H2       1.13108    0.98934    1.44030   1.00
H2       0.86747    1.03302    1.19247   1.00
H2       0.84320    1.04664    1.23763   1.00
C2       0.99887    0.99757    1.14605   1.00
C3       0.99004    1.03253    1.16597   1.00
O2       0.97188    1.06289    1.14674   1.00
C3       1.00973    0.96450    1.16826   1.00
H1       1.01764    0.93759    1.15385   1.00
C3a      0.99124    1.03342    1.20713   1.00
H1       0.98224    1.05975    1.22202   1.00
C3b      1.00968    0.96512    1.20922   1.00
C4       1.00032    0.99972    1.22900   1.00
O3       0.93328    0.97544    1.27167   1.00
C5       0.99926    1.09212    1.13720   1.00
H2       1.01367    1.10399    1.16391   1.00
C5       0.97694    1.12471    1.11674   1.00
H2       1.02220    1.08052    1.11726   1.00
H2       0.96210    1.14276    1.13932   1.00
H2       0.95346    1.11082    1.09907   1.00
C5       1.00320    1.15033    1.09082   1.00
H2       1.02819    1.16144    1.10824   1.00
C5       0.98023    1.18534    1.07453   1.00
H2       1.01439    1.13369    1.06507   1.00
C5       0.87357    0.99026    1.24017   1.00
H2       0.85471    0.97550    1.26215   1.00
H2       0.88378    0.96732    1.21952   1.00
C5       0.85059    1.02186    1.21800   1.00
C5       0.81219    1.00467    1.20225   1.00
H2       1.18485    1.03238    1.44286   1.00
H2       1.20684    0.98344    1.43447   1.00
H2       1.20191    1.01841    1.39323   1.00
H2       0.96266    0.78035    1.28105   1.00
H2       1.01037    0.78495    1.25551   1.00
H2       1.00241    0.81019    1.30293   1.00
H2       0.99102    1.19237    1.04387   1.00
H2       0.94786    1.17781    1.07344   1.00
H2       0.98482    1.21174    1.09423   1.00
H2       0.81233    0.97167    1.20634   1.00
H2       0.78654    1.01779    1.21884   1.00
H2       0.80929    1.01182    1.16990   1.00
C5       1.01652    1.38218    1.12570   1.00
H2       1.04181    1.39745    1.11240   1.00
H2       1.02906    1.36090    1.14669   1.00
C5       0.99061    1.41194    1.14717   1.00
C5       1.00729    1.42123    1.18784   1.00
H2       0.96053    1.40015    1.15050   1.00
O3       0.93239    1.23000    1.02109   1.00
C4       1.00028    1.27100    0.99968   1.00
C3c      1.01132    1.29243    1.03282   1.00
H1       1.02017    1.27725    1.05901   1.00
C3d      0.98938    1.29135    0.96567   1.00
C3       1.01062    1.33354    1.03295   1.00
O2       1.02632    1.35248    1.06469   1.00
C3       0.98793    1.33227    0.96594   1.00
H1       0.97806    1.34657    0.93962   1.00
C2       0.99860    1.35439    0.99933   1.00
C5       0.90439    1.22879    0.99089   1.00
H2       0.89533    1.19838    0.98373   1.00
H2       0.91582    1.24266    0.96374   1.00
C5       0.86861    1.25129    1.00478   1.00
H2       0.87786    1.28137    1.01298   1.00
H2       0.85723    1.23698    1.03168   1.00
C5       0.83699    1.25262    0.97290   1.00
H2       0.82781    1.22268    0.96438   1.00
H2       0.84788    1.26811    0.94652   1.00
C5       0.80077    1.27445    0.98807   1.00
C5       1.00702    1.26105    0.90909   1.00
C5       0.99666    1.36070    1.09218   1.00
H2       1.02731    1.24088    0.92441   1.00
H2       1.02378    1.28712    0.89911   1.00
H2       0.98329    1.33300    1.10286   1.00
H2       0.97268    1.37895    1.07962   1.00
H2       0.98934    1.44030    1.13108   1.00
H2       1.03302    1.19247    0.86747   1.00
H2       1.04664    1.23763    0.84320   1.00
C2       0.99757    1.14605    0.99887   1.00
C3       1.03253    1.16597    0.99004   1.00
O2       1.06289    1.14674    0.97188   1.00
C3       0.96450    1.16826    1.00973   1.00
H1       0.93759    1.15385    1.01764   1.00
C3a      1.03342    1.20713    0.99124   1.00
H1       1.05975    1.22202    0.98224   1.00
C3b      0.96512    1.20922    1.00968   1.00
C4       0.99972    1.22900    1.00032   1.00
O3       0.97544    1.27167    0.93328   1.00
C5       1.09212    1.13720    0.99926   1.00
H2       1.10399    1.16391    1.01367   1.00
C5       1.12471    1.11674    0.97694   1.00
H2       1.08052    1.11726    1.02220   1.00
H2       1.14276    1.13932    0.96210   1.00
H2       1.11082    1.09907    0.95346   1.00
C5       1.15033    1.09082    1.00320   1.00
H2       1.16144    1.10824    1.02819   1.00
C5       1.18534    1.07453    0.98023   1.00
H2       1.13369    1.06507    1.01439   1.00
C5       0.99026    1.24017    0.87357   1.00
H2       0.97550    1.26215    0.85471   1.00
H2       0.96732    1.21952    0.88378   1.00
C5       1.02186    1.21800    0.85059   1.00
C5       1.00467    1.20225    0.81219   1.00
H2       1.03238    1.44286    1.18485   1.00
H2       0.98344    1.43447    1.20684   1.00
H2       1.01841    1.39323    1.20191   1.00
H2       0.78035    1.28105    0.96266   1.00
H2       0.78495    1.25551    1.01037   1.00
H2       0.81019    1.30293    1.00241   1.00
H2       1.19237    1.04387    0.99102   1.00
H2       1.17781    1.07344    0.94786   1.00
H2       1.21174    1.09423    0.98482   1.00
H2       0.97167    1.20634    0.81233   1.00
H2       1.01779    1.21884    0.78654   1.00
H2       1.01182    1.16990    0.80929   1.00
C5       0.61782    1.12570    0.98348   1.00
H2       0.60255    1.11240    0.95819   1.00
H2       0.63910    1.14669    0.97094   1.00
C5       0.58806    1.14717    1.00939   1.00
C5       0.57877    1.18784    0.99271   1.00
H2       0.59985    1.15050    1.03947   1.00
O3       0.77000    1.02109    1.06761   1.00
C4       0.72900    0.99968    0.99972   1.00
C3c      0.70757    1.03282    0.98868   1.00
H1       0.72275    1.05901    0.97983   1.00
C3d      0.70865    0.96567    1.01062   1.00
C3       0.66646    1.03295    0.98938   1.00
O2       0.64752    1.06469    0.97368   1.00
C3       0.66773    0.96594    1.01207   1.00
H1       0.65343    0.93962    1.02194   1.00
C2       0.64561    0.99933    1.00140   1.00
C5       0.77121    0.99089    1.09561   1.00
H2       0.80162    0.98373    1.10467   1.00
H2       0.75734    0.96374    1.08418   1.00
C5       0.74871    1.00478    1.13139   1.00
H2       0.71863    1.01298    1.12214   1.00
H2       0.76302    1.03168    1.14277   1.00
C5       0.74738    0.97290    1.16301   1.00
H2       0.77732    0.96438    1.17219   1.00
H2       0.73189    0.94652    1.15212   1.00
C5       0.72555    0.98807    1.19923   1.00
C5       0.73895    0.90909    0.99298   1.00
C5       0.63930    1.09218    1.00334   1.00
H2       0.75912    0.92441    0.97269   1.00
H2       0.71288    0.89911    0.97622   1.00
H2       0.66700    1.10286    1.01671   1.00
H2       0.62105    1.07962    1.02732   1.00
H2       0.55970    1.13108    1.01066   1.00
H2       0.80753    0.86747    0.96698   1.00
H2       0.76237    0.84320    0.95336   1.00
C2       0.85395    0.99887    1.00243   1.00
C3       0.83403    0.99004    0.96747   1.00
O2       0.85326    0.97188    0.93711   1.00
C3       0.83174    1.00973    1.03550   1.00
H1       0.84615    1.01764    1.06241   1.00
C3a      0.79287    0.99124    0.96658   1.00
H1       0.77798    0.98224    0.94025   1.00
C3b      0.79078    1.00968    1.03488   1.00
C4       0.77100    1.00032    1.00028   1.00
O3       0.72833    0.93328    1.02456   1.00
C5       0.86280    0.99926    0.90788   1.00
H2       0.83609    1.01367    0.89601   1.00
C5       0.88326    0.97694    0.87529   1.00
H2       0.88274    1.02220    0.91948   1.00
H2       0.86068    0.96210    0.85724   1.00
H2       0.90093    0.95346    0.88918   1.00
C5       0.90918    1.00320    0.84967   1.00
H2       0.89176    1.02819    0.83856   1.00
C5       0.92547    0.98023    0.81466   1.00
H2       0.93493    1.01439    0.86631   1.00
C5       0.75983    0.87357    1.00974   1.00
H2       0.73785    0.85471    1.02450   1.00
H2       0.78048    0.88378    1.03268   1.00
C5       0.78200    0.85059    0.97814   1.00
C5       0.79775    0.81219    0.99533   1.00
H2       0.55714    1.18485    0.96762   1.00
H2       0.56553    1.20684    1.01656   1.00
H2       0.60677    1.20191    0.98159   1.00
H2       0.71895    0.96266    1.21965   1.00
H2       0.74449    1.01037    1.21505   1.00
H2       0.69707    1.00241    1.18981   1.00
H2       0.95613    0.99102    0.80763   1.00
H2       0.92656    0.94786    0.82219   1.00
H2       0.90577    0.98482    0.78826   1.00
H2       0.79366    0.81233    1.02833   1.00
H2       0.78116    0.78654    0.98221   1.00
H2       0.83010    0.80929    0.98818   1.00
C5       1.38218    1.12570    1.01652   1.00
H2       1.39745    1.11240    1.04181   1.00
H2       1.36090    1.14669    1.02906   1.00
C5       1.41194    1.14717    0.99061   1.00
C5       1.42123    1.18784    1.00729   1.00
H2       1.40015    1.15050    0.96053   1.00
O3       1.23000    1.02109    0.93239   1.00
C4       1.27100    0.99968    1.00028   1.00
C3c      1.29243    1.03282    1.01132   1.00
H1       1.27725    1.05901    1.02017   1.00
C3d      1.29135    0.96567    0.98938   1.00
C3       1.33354    1.03295    1.01062   1.00
O2       1.35248    1.06469    1.02632   1.00
C3       1.33227    0.96594    0.98793   1.00
H1       1.34657    0.93962    0.97806   1.00
C2       1.35439    0.99933    0.99860   1.00
C5       1.22879    0.99089    0.90439   1.00
H2       1.19838    0.98373    0.89533   1.00
H2       1.24266    0.96374    0.91582   1.00
C5       1.25129    1.00478    0.86861   1.00
H2       1.28137    1.01298    0.87786   1.00
H2       1.23698    1.03168    0.85723   1.00
C5       1.25262    0.97290    0.83699   1.00
H2       1.22268    0.96438    0.82781   1.00
H2       1.26811    0.94652    0.84788   1.00
C5       1.27445    0.98807    0.80077   1.00
C5       1.26105    0.90909    1.00702   1.00
C5       1.36070    1.09218    0.99666   1.00
H2       1.24088    0.92441    1.02731   1.00
H2       1.28712    0.89911    1.02378   1.00
H2       1.33300    1.10286    0.98329   1.00
H2       1.37895    1.07962    0.97268   1.00
H2       1.44030    1.13108    0.98934   1.00
H2       1.19247    0.86747    1.03302   1.00
H2       1.23763    0.84320    1.04664   1.00
C2       1.14605    0.99887    0.99757   1.00
C3       1.16597    0.99004    1.03253   1.00
O2       1.14674    0.97188    1.06289   1.00
C3       1.16826    1.00973    0.96450   1.00
H1       1.15385    1.01764    0.93759   1.00
C3a      1.20713    0.99124    1.03342   1.00
H1       1.22202    0.98224    1.05975   1.00
C3b      1.20922    1.00968    0.96512   1.00
C4       1.22900    1.00032    0.99972   1.00
O3       1.27167    0.93328    0.97544   1.00
C5       1.13720    0.99926    1.09212   1.00
H2       1.16391    1.01367    1.10399   1.00
C5       1.11674    0.97694    1.12471   1.00
H2       1.11726    1.02220    1.08052   1.00
H2       1.13932    0.96210    1.14276   1.00
H2       1.09907    0.95346    1.11082   1.00
C5       1.09082    1.00320    1.15033   1.00
H2       1.10824    1.02819    1.16144   1.00
C5       1.07453    0.98023    1.18534   1.00
H2       1.06507    1.01439    1.13369   1.00
C5       1.24017    0.87357    0.99026   1.00
H2       1.26215    0.85471    0.97550   1.00
H2       1.21952    0.88378    0.96732   1.00
C5       1.21800    0.85059    1.02186   1.00
C5       1.20225    0.81219    1.00467   1.00
H2       1.44286    1.18485    1.03238   1.00
H2       1.43447    1.20684    0.98344   1.00
H2       1.39323    1.20191    1.01841   1.00
H2       1.28105    0.96266    0.78035   1.00
H2       1.25551    1.01037    0.78495   1.00
H2       1.30293    1.00241    0.81019   1.00
H2       1.04387    0.99102    1.19237   1.00
H2       1.07344    0.94786    1.17781   1.00
H2       1.09423    0.98482    1.21174   1.00
H2       1.20634    0.81233    0.97167   1.00
H2       1.21884    0.78654    1.01779   1.00
H2       1.16990    0.80929    1.01182   1.00
C5       0.98348    0.61782    1.12570   1.00
H2       0.95819    0.60255    1.11240   1.00
H2       0.97094    0.63910    1.14669   1.00
C5       1.00939    0.58806    1.14717   1.00
C5       0.99271    0.57877    1.18784   1.00
H2       1.03947    0.59985    1.15050   1.00
O3       1.06761    0.77000    1.02109   1.00
C4       0.99972    0.72900    0.99968   1.00
C3c      0.98868    0.70757    1.03282   1.00
H1       0.97983    0.72275    1.05901   1.00
C3d      1.01062    0.70865    0.96567   1.00
C3       0.98938    0.66646    1.03295   1.00
O2       0.97368    0.64752    1.06469   1.00
C3       1.01207    0.66773    0.96594   1.00
H1       1.02194    0.65343    0.93962   1.00
C2       1.00140    0.64561    0.99933   1.00
C5       1.09561    0.77121    0.99089   1.00
H2       1.10467    0.80162    0.98373   1.00
H2       1.08418    0.75734    0.96374   1.00
C5       1.13139    0.74871    1.00478   1.00
H2       1.12214    0.71863    1.01298   1.00
H2       1.14277    0.76302    1.03168   1.00
C5       1.16301    0.74738    0.97290   1.00
H2       1.17219    0.77732    0.96438   1.00
H2       1.15212    0.73189    0.94652   1.00
C5       1.19923    0.72555    0.98807   1.00
C5       0.99298    0.73895    0.90909   1.00
C5       1.00334    0.63930    1.09218   1.00
H2       0.97269    0.75912    0.92441   1.00
H2       0.97622    0.71288    0.89911   1.00
H2       1.01671    0.66700    1.10286   1.00
H2       1.02732    0.62105    1.07962   1.00
H2       1.01066    0.55970    1.13108   1.00
H2       0.96698    0.80753    0.86747   1.00
H2       0.95336    0.76237    0.84320   1.00
C2       1.00243    0.85395    0.99887   1.00
C3       0.96747    0.83403    0.99004   1.00
O2       0.93711    0.85326    0.97188   1.00
C3       1.03550    0.83174    1.00973   1.00
H1       1.06241    0.84615    1.01764   1.00
C3a      0.96658    0.79287    0.99124   1.00
H1       0.94025    0.77798    0.98224   1.00
C3b      1.03488    0.79078    1.00968   1.00
C4       1.00028    0.77100    1.00032   1.00
O3       1.02456    0.72833    0.93328   1.00
C5       0.90788    0.86280    0.99926   1.00
H2       0.89601    0.83609    1.01367   1.00
C5       0.87529    0.88326    0.97694   1.00
H2       0.91948    0.88274    1.02220   1.00
H2       0.85724    0.86068    0.96210   1.00
H2       0.88918    0.90093    0.95346   1.00
C5       0.84967    0.90918    1.00320   1.00
H2       0.83856    0.89176    1.02819   1.00
C5       0.81466    0.92547    0.98023   1.00
H2       0.86631    0.93493    1.01439   1.00
C5       1.00974    0.75983    0.87357   1.00
H2       1.02450    0.73785    0.85471   1.00
H2       1.03268    0.78048    0.88378   1.00
C5       0.97814    0.78200    0.85059   1.00
C5       0.99533    0.79775    0.81219   1.00
H2       0.96762    0.55714    1.18485   1.00
H2       1.01656    0.56553    1.20684   1.00
H2       0.98159    0.60677    1.20191   1.00
H2       1.21965    0.71895    0.96266   1.00
H2       1.21505    0.74449    1.01037   1.00
H2       1.18981    0.69707    1.00241   1.00
H2       0.80763    0.95613    0.99102   1.00
H2       0.82219    0.92656    0.94786   1.00
H2       0.78826    0.90577    0.98482   1.00
H2       1.02833    0.79366    0.81233   1.00
H2       0.98221    0.78116    0.78654   1.00
H2       0.98818    0.83010    0.80929   1.00
C5       1.12570    0.98348    0.61782   1.00
H2       1.11240    0.95819    0.60255   1.00
H2       1.14669    0.97094    0.63910   1.00
C5       1.14717    1.00939    0.58806   1.00
C5       1.18784    0.99271    0.57877   1.00
H2       1.15050    1.03947    0.59985   1.00
O3       1.02109    1.06761    0.77000   1.00
C4       0.99968    0.99972    0.72900   1.00
C3c      1.03282    0.98868    0.70757   1.00
H1       1.05901    0.97983    0.72275   1.00
C3d      0.96567    1.01062    0.70865   1.00
C3       1.03295    0.98938    0.66646   1.00
O2       1.06469    0.97368    0.64752   1.00
C3       0.96594    1.01207    0.66773   1.00
H1       0.93962    1.02194    0.65343   1.00
C2       0.99933    1.00140    0.64561   1.00
C5       0.99089    1.09561    0.77121   1.00
H2       0.98373    1.10467    0.80162   1.00
H2       0.96374    1.08418    0.75734   1.00
C5       1.00478    1.13139    0.74871   1.00
H2       1.01298    1.12214    0.71863   1.00
H2       1.03168    1.14277    0.76302   1.00
C5       0.97290    1.16301    0.74738   1.00
H2       0.96438    1.17219    0.77732   1.00
H2       0.94652    1.15212    0.73189   1.00
C5       0.98807    1.19923    0.72555   1.00
C5       0.90909    0.99298    0.73895   1.00
C5       1.09218    1.00334    0.63930   1.00
H2       0.92441    0.97269    0.75912   1.00
H2       0.89911    0.97622    0.71288   1.00
H2       1.10286    1.01671    0.66700   1.00
H2       1.07962    1.02732    0.62105   1.00
H2       1.13108    1.01066    0.55970   1.00
H2       0.86747    0.96698    0.80753   1.00
H2       0.84320    0.95336    0.76237   1.00
C2       0.99887    1.00243    0.85395   1.00
C3       0.99004    0.96747    0.83403   1.00
O2       0.97188    0.93711    0.85326   1.00
C3       1.00973    1.03550    0.83174   1.00
H1       1.01764    1.06241    0.84615   1.00
C3a      0.99124    0.96658    0.79287   1.00
H1       0.98224    0.94025    0.77798   1.00
C3b      1.00968    1.03488    0.79078   1.00
C4       1.00032    1.00028    0.77100   1.00
O3       0.93328    1.02456    0.72833   1.00
C5       0.99926    0.90788    0.86280   1.00
H2       1.01367    0.89601    0.83609   1.00
C5       0.97694    0.87529    0.88326   1.00
H2       1.02220    0.91948    0.88274   1.00
H2       0.96210    0.85724    0.86068   1.00
H2       0.95346    0.88918    0.90093   1.00
C5       1.00320    0.84967    0.90918   1.00
H2       1.02819    0.83856    0.89176   1.00
C5       0.98023    0.81466    0.92547   1.00
H2       1.01439    0.86631    0.93493   1.00
C5       0.87357    1.00974    0.75983   1.00
H2       0.85471    1.02450    0.73785   1.00
H2       0.88378    1.03268    0.78048   1.00
C5       0.85059    0.97814    0.78200   1.00
C5       0.81219    0.99533    0.79775   1.00
H2       1.18485    0.96762    0.55714   1.00
H2       1.20684    1.01656    0.56553   1.00
H2       1.20191    0.98159    0.60677   1.00
H2       0.96266    1.21965    0.71895   1.00
H2       1.01037    1.21505    0.74449   1.00
H2       1.00241    1.18981    0.69707   1.00
H2       0.99102    0.80763    0.95613   1.00
H2       0.94786    0.82219    0.92656   1.00
H2       0.98482    0.78826    0.90577   1.00
H2       0.81233    1.02833    0.79366   1.00
H2       0.78654    0.98221    0.78116   1.00
H2       0.80929    0.98818    0.83010   1.00
C5       0.62570    0.51652    1.38218   1.00
H2       0.61240    0.54181    1.39745   1.00
H2       0.64669    0.52906    1.36090   1.00
C5       0.64717    0.49061    1.41194   1.00
C5       0.68784    0.50729    1.42123   1.00
H2       0.65050    0.46053    1.40015   1.00
O3       0.52109    0.43239    1.23000   1.00
C4       0.49968    0.50028    1.27100   1.00
C3c      0.53282    0.51132    1.29243   1.00
H1       0.55901    0.52017    1.27725   1.00
C3d      0.46567    0.48938    1.29135   1.00
C3       0.53295    0.51062    1.33354   1.00
O2       0.56469    0.52632    1.35248   1.00
C3       0.46594    0.48793    1.33227   1.00
H1       0.43962    0.47806    1.34657   1.00
C2       0.49933    0.49860    1.35439   1.00
C5       0.49089    0.40439    1.22879   1.00
H2       0.48373    0.39533    1.19838   1.00
H2       0.46374    0.41582    1.24266   1.00
C5       0.50478    0.36861    1.25129   1.00
H2       0.51298    0.37786    1.28137   1.00
H2       0.53168    0.35723    1.23698   1.00
C5       0.47290    0.33699    1.25262   1.00
H2       0.46438    0.32781    1.22268   1.00
H2       0.44652    0.34788    1.26811   1.00
C5       0.48807    0.30077    1.27445   1.00
C5       0.40909    0.50702    1.26105   1.00
C5       0.59218    0.49666    1.36070   1.00
H2       0.42441    0.52731    1.24088   1.00
H2       0.39911    0.52378    1.28712   1.00
H2       0.60286    0.48329    1.33300   1.00
H2       0.57962    0.47268    1.37895   1.00
H2       0.63108    0.48934    1.44030   1.00
H2       0.36747    0.53302    1.19247   1.00
H2       0.34320    0.54664    1.23763   1.00
C2       0.49887    0.49757    1.14605   1.00
C3       0.49004    0.53253    1.16597   1.00
O2       0.47188    0.56289    1.14674   1.00
C3       0.50973    0.46450    1.16826   1.00
H1       0.51764    0.43759    1.15385   1.00
C3a      0.49124    0.53342    1.20713   1.00
H1       0.48224    0.55975    1.22202   1.00
C3b      0.50968    0.46512    1.20922   1.00
C4       0.50032    0.49972    1.22900   1.00
O3       0.43328    0.47544    1.27167   1.00
C5       0.49926    0.59212    1.13720   1.00
H2       0.51367    0.60399    1.16391   1.00
C5       0.47694    0.62471    1.11674   1.00
H2       0.52220    0.58052    1.11726   1.00
H2       0.46210    0.64276    1.13932   1.00
H2       0.45346    0.61082    1.09907   1.00
C5       0.50320    0.65033    1.09082   1.00
H2       0.52819    0.66144    1.10824   1.00
C5       0.48023    0.68534    1.07453   1.00
H2       0.51439    0.63369    1.06507   1.00
C5       0.37357    0.49026    1.24017   1.00
H2       0.35471    0.47550    1.26215   1.00
H2       0.38378    0.46732    1.21952   1.00
C5       0.35059    0.52186    1.21800   1.00
C5       0.31219    0.50467    1.20225   1.00
H2       0.68485    0.53238    1.44286   1.00
H2       0.70684    0.48344    1.43447   1.00
H2       0.70191    0.51841    1.39323   1.00
H2       0.46266    0.28035    1.28105   1.00
H2       0.51037    0.28495    1.25551   1.00
H2       0.50241    0.31019    1.30293   1.00
H2       0.49102    0.69237    1.04387   1.00
H2       0.44786    0.67781    1.07344   1.00
H2       0.48482    0.71174    1.09423   1.00
H2       0.31233    0.47167    1.20634   1.00
H2       0.28654    0.51779    1.21884   1.00
H2       0.30929    0.51182    1.16990   1.00
C5       0.51652    0.88218    1.12570   1.00
H2       0.54181    0.89745    1.11240   1.00
H2       0.52906    0.86090    1.14669   1.00
C5       0.49061    0.91194    1.14717   1.00
C5       0.50729    0.92123    1.18784   1.00
H2       0.46053    0.90015    1.15050   1.00
O3       0.43239    0.73000    1.02109   1.00
C4       0.50028    0.77100    0.99968   1.00
C3c      0.51132    0.79243    1.03282   1.00
H1       0.52017    0.77725    1.05901   1.00
C3d      0.48938    0.79135    0.96567   1.00
C3       0.51062    0.83354    1.03295   1.00
O2       0.52632    0.85248    1.06469   1.00
C3       0.48793    0.83227    0.96594   1.00
H1       0.47806    0.84657    0.93962   1.00
C2       0.49860    0.85439    0.99933   1.00
C5       0.40439    0.72879    0.99089   1.00
H2       0.39533    0.69838    0.98373   1.00
H2       0.41582    0.74266    0.96374   1.00
C5       0.36861    0.75129    1.00478   1.00
H2       0.37786    0.78137    1.01298   1.00
H2       0.35723    0.73698    1.03168   1.00
C5       0.33699    0.75262    0.97290   1.00
H2       0.32781    0.72268    0.96438   1.00
H2       0.34788    0.76811    0.94652   1.00
C5       0.30077    0.77445    0.98807   1.00
C5       0.50702    0.76105    0.90909   1.00
C5       0.49666    0.86070    1.09218   1.00
H2       0.52731    0.74088    0.92441   1.00
H2       0.52378    0.78712    0.89911   1.00
H2       0.48329    0.83300    1.10286   1.00
H2       0.47268    0.87895    1.07962   1.00
H2       0.48934    0.94030    1.13108   1.00
H2       0.53302    0.69247    0.86747   1.00
H2       0.54664    0.73763    0.84320   1.00
C2       0.49757    0.64605    0.99887   1.00
C3       0.53253    0.66597    0.99004   1.00
O2       0.56289    0.64674    0.97188   1.00
C3       0.46450    0.66826    1.00973   1.00
H1       0.43759    0.65385    1.01764   1.00
C3a      0.53342    0.70713    0.99124   1.00
H1       0.55975    0.72202    0.98224   1.00
C3b      0.46512    0.70922    1.00968   1.00
C4       0.49972    0.72900    1.00032   1.00
O3       0.47544    0.77167    0.93328   1.00
C5       0.59212    0.63720    0.99926   1.00
H2       0.60399    0.66391    1.01367   1.00
C5       0.62471    0.61674    0.97694   1.00
H2       0.58052    0.61726    1.02220   1.00
H2       0.64276    0.63932    0.96210   1.00
H2       0.61082    0.59907    0.95346   1.00
C5       0.65033    0.59082    1.00320   1.00
H2       0.66144    0.60824    1.02819   1.00
C5       0.68534    0.57453    0.98023   1.00
H2       0.63369    0.56507    1.01439   1.00
C5       0.49026    0.74017    0.87357   1.00
H2       0.47550    0.76215    0.85471   1.00
H2       0.46732    0.71952    0.88378   1.00
C5       0.52186    0.71800    0.85059   1.00
C5       0.50467    0.70225    0.81219   1.00
H2       0.53238    0.94286    1.18485   1.00
H2       0.48344    0.93447    1.20684   1.00
H2       0.51841    0.89323    1.20191   1.00
H2       0.28035    0.78105    0.96266   1.00
H2       0.28495    0.75551    1.01037   1.00
H2       0.31019    0.80293    1.00241   1.00
H2       0.69237    0.54387    0.99102   1.00
H2       0.67781    0.57344    0.94786   1.00
H2       0.71174    0.59423    0.98482   1.00
H2       0.47167    0.70634    0.81233   1.00
H2       0.51779    0.71884    0.78654   1.00
H2       0.51182    0.66990    0.80929   1.00
C5       0.11782    0.62570    0.98348   1.00
H2       0.10255    0.61240    0.95819   1.00
H2       0.13910    0.64669    0.97094   1.00
C5       0.08806    0.64717    1.00939   1.00
C5       0.07877    0.68784    0.99271   1.00
H2       0.09985    0.65050    1.03947   1.00
O3       0.27000    0.52109    1.06761   1.00
C4       0.22900    0.49968    0.99972   1.00
C3c      0.20757    0.53282    0.98868   1.00
H1       0.22275    0.55901    0.97983   1.00
C3d      0.20865    0.46567    1.01062   1.00
C3       0.16646    0.53295    0.98938   1.00
O2       0.14752    0.56469    0.97368   1.00
C3       0.16773    0.46594    1.01207   1.00
H1       0.15343    0.43962    1.02194   1.00
C2       0.14561    0.49933    1.00140   1.00
C5       0.27121    0.49089    1.09561   1.00
H2       0.30162    0.48373    1.10467   1.00
H2       0.25734    0.46374    1.08418   1.00
C5       0.24871    0.50478    1.13139   1.00
H2       0.21863    0.51298    1.12214   1.00
H2       0.26302    0.53168    1.14277   1.00
C5       0.24738    0.47290    1.16301   1.00
H2       0.27732    0.46438    1.17219   1.00
H2       0.23189    0.44652    1.15212   1.00
C5       0.22555    0.48807    1.19923   1.00
C5       0.23895    0.40909    0.99298   1.00
C5       0.13930    0.59218    1.00334   1.00
H2       0.25912    0.42441    0.97269   1.00
H2       0.21288    0.39911    0.97622   1.00
H2       0.16700    0.60286    1.01671   1.00
H2       0.12105    0.57962    1.02732   1.00
H2       0.05970    0.63108    1.01066   1.00
H2       0.30753    0.36747    0.96698   1.00
H2       0.26237    0.34320    0.95336   1.00
C2       0.35395    0.49887    1.00243   1.00
C3       0.33403    0.49004    0.96747   1.00
O2       0.35326    0.47188    0.93711   1.00
C3       0.33174    0.50973    1.03550   1.00
H1       0.34615    0.51764    1.06241   1.00
C3a      0.29287    0.49124    0.96658   1.00
H1       0.27798    0.48224    0.94025   1.00
C3b      0.29078    0.50968    1.03488   1.00
C4       0.27100    0.50032    1.00028   1.00
O3       0.22833    0.43328    1.02456   1.00
C5       0.36280    0.49926    0.90788   1.00
H2       0.33609    0.51367    0.89601   1.00
C5       0.38326    0.47694    0.87529   1.00
H2       0.38274    0.52220    0.91948   1.00
H2       0.36068    0.46210    0.85724   1.00
H2       0.40093    0.45346    0.88918   1.00
C5       0.40918    0.50320    0.84967   1.00
H2       0.39176    0.52819    0.83856   1.00
C5       0.42547    0.48023    0.81466   1.00
H2       0.43493    0.51439    0.86631   1.00
C5       0.25983    0.37357    1.00974   1.00
H2       0.23785    0.35471    1.02450   1.00
H2       0.28048    0.38378    1.03268   1.00
C5       0.28200    0.35059    0.97814   1.00
C5       0.29775    0.31219    0.99533   1.00
H2       0.05714    0.68485    0.96762   1.00
H2       0.06553    0.70684    1.01656   1.00
H2       0.10677    0.70191    0.98159   1.00
H2       0.21895    0.46266    1.21965   1.00
H2       0.24449    0.51037    1.21505   1.00
H2       0.19707    0.50241    1.18981   1.00
H2       0.45613    0.49102    0.80763   1.00
H2       0.42656    0.44786    0.82219   1.00
H2       0.40577    0.48482    0.78826   1.00
H2       0.29366    0.31233    1.02833   1.00
H2       0.28116    0.28654    0.98221   1.00
H2       0.33010    0.30929    0.98818   1.00
C5       0.88218    0.62570    1.01652   1.00
H2       0.89745    0.61240    1.04181   1.00
H2       0.86090    0.64669    1.02906   1.00
C5       0.91194    0.64717    0.99061   1.00
C5       0.92123    0.68784    1.00729   1.00
H2       0.90015    0.65050    0.96053   1.00
O3       0.73000    0.52109    0.93239   1.00
C4       0.77100    0.49968    1.00028   1.00
C3c      0.79243    0.53282    1.01132   1.00
H1       0.77725    0.55901    1.02017   1.00
C3d      0.79135    0.46567    0.98938   1.00
C3       0.83354    0.53295    1.01062   1.00
O2       0.85248    0.56469    1.02632   1.00
C3       0.83227    0.46594    0.98793   1.00
H1       0.84657    0.43962    0.97806   1.00
C2       0.85439    0.49933    0.99860   1.00
C5       0.72879    0.49089    0.90439   1.00
H2       0.69838    0.48373    0.89533   1.00
H2       0.74266    0.46374    0.91582   1.00
C5       0.75129    0.50478    0.86861   1.00
H2       0.78137    0.51298    0.87786   1.00
H2       0.73698    0.53168    0.85723   1.00
C5       0.75262    0.47290    0.83699   1.00
H2       0.72268    0.46438    0.82781   1.00
H2       0.76811    0.44652    0.84788   1.00
C5       0.77445    0.48807    0.80077   1.00
C5       0.76105    0.40909    1.00702   1.00
C5       0.86070    0.59218    0.99666   1.00
H2       0.74088    0.42441    1.02731   1.00
H2       0.78712    0.39911    1.02378   1.00
H2       0.83300    0.60286    0.98329   1.00
H2       0.87895    0.57962    0.97268   1.00
H2       0.94030    0.63108    0.98934   1.00
H2       0.69247    0.36747    1.03302   1.00
H2       0.73763    0.34320    1.04664   1.00
C2       0.64605    0.49887    0.99757   1.00
C3       0.66597    0.49004    1.03253   1.00
O2       0.64674    0.47188    1.06289   1.00
C3       0.66826    0.50973    0.96450   1.00
H1       0.65385    0.51764    0.93759   1.00
C3a      0.70713    0.49124    1.03342   1.00
H1       0.72202    0.48224    1.05975   1.00
C3b      0.70922    0.50968    0.96512   1.00
C4       0.72900    0.50032    0.99972   1.00
O3       0.77167    0.43328    0.97544   1.00
C5       0.63720    0.49926    1.09212   1.00
H2       0.66391    0.51367    1.10399   1.00
C5       0.61674    0.47694    1.12471   1.00
H2       0.61726    0.52220    1.08052   1.00
H2       0.63932    0.46210    1.14276   1.00
H2       0.59907    0.45346    1.11082   1.00
C5       0.59082    0.50320    1.15033   1.00
H2       0.60824    0.52819    1.16144   1.00
C5       0.57453    0.48023    1.18534   1.00
H2       0.56507    0.51439    1.13369   1.00
C5       0.74017    0.37357    0.99026   1.00
H2       0.76215    0.35471    0.97550   1.00
H2       0.71952    0.38378    0.96732   1.00
C5       0.71800    0.35059    1.02186   1.00
C5       0.70225    0.31219    1.00467   1.00
H2       0.94286    0.68485    1.03238   1.00
H2       0.93447    0.70684    0.98344   1.00
H2       0.89323    0.70191    1.01841   1.00
H2       0.78105    0.46266    0.78035   1.00
H2       0.75551    0.51037    0.78495   1.00
H2       0.80293    0.50241    0.81019   1.00
H2       0.54387    0.49102    1.19237   1.00
H2       0.57344    0.44786    1.17781   1.00
H2       0.59423    0.48482    1.21174   1.00
H2       0.70634    0.31233    0.97167   1.00
H2       0.71884    0.28654    1.01779   1.00
H2       0.66990    0.30929    1.01182   1.00
C5       0.48348    0.11782    1.12570   1.00
H2       0.45819    0.10255    1.11240   1.00
H2       0.47094    0.13910    1.14669   1.00
C5       0.50939    0.08806    1.14717   1.00
C5       0.49271    0.07877    1.18784   1.00
H2       0.53947    0.09985    1.15050   1.00
O3       0.56761    0.27000    1.02109   1.00
C4       0.49972    0.22900    0.99968   1.00
C3c      0.48868    0.20757    1.03282   1.00
H1       0.47983    0.22275    1.05901   1.00
C3d      0.51062    0.20865    0.96567   1.00
C3       0.48938    0.16646    1.03295   1.00
O2       0.47368    0.14752    1.06469   1.00
C3       0.51207    0.16773    0.96594   1.00
H1       0.52194    0.15343    0.93962   1.00
C2       0.50140    0.14561    0.99933   1.00
C5       0.59561    0.27121    0.99089   1.00
H2       0.60467    0.30162    0.98373   1.00
H2       0.58418    0.25734    0.96374   1.00
C5       0.63139    0.24871    1.00478   1.00
H2       0.62214    0.21863    1.01298   1.00
H2       0.64277    0.26302    1.03168   1.00
C5       0.66301    0.24738    0.97290   1.00
H2       0.67219    0.27732    0.96438   1.00
H2       0.65212    0.23189    0.94652   1.00
C5       0.69923    0.22555    0.98807   1.00
C5       0.49298    0.23895    0.90909   1.00
C5       0.50334    0.13930    1.09218   1.00
H2       0.47269    0.25912    0.92441   1.00
H2       0.47622    0.21288    0.89911   1.00
H2       0.51671    0.16700    1.10286   1.00
H2       0.52732    0.12105    1.07962   1.00
H2       0.51066    0.05970    1.13108   1.00
H2       0.46698    0.30753    0.86747   1.00
H2       0.45336    0.26237    0.84320   1.00
C2       0.50243    0.35395    0.99887   1.00
C3       0.46747    0.33403    0.99004   1.00
O2       0.43711    0.35326    0.97188   1.00
C3       0.53550    0.33174    1.00973   1.00
H1       0.56241    0.34615    1.01764   1.00
C3a      0.46658    0.29287    0.99124   1.00
H1       0.44025    0.27798    0.98224   1.00
C3b      0.53488    0.29078    1.00968   1.00
C4       0.50028    0.27100    1.00032   1.00
O3       0.52456    0.22833    0.93328   1.00
C5       0.40788    0.36280    0.99926   1.00
H2       0.39601    0.33609    1.01367   1.00
C5       0.37529    0.38326    0.97694   1.00
H2       0.41948    0.38274    1.02220   1.00
H2       0.35724    0.36068    0.96210   1.00
H2       0.38918    0.40093    0.95346   1.00
C5       0.34967    0.40918    1.00320   1.00
H2       0.33856    0.39176    1.02819   1.00
C5       0.31466    0.42547    0.98023   1.00
H2       0.36631    0.43493    1.01439   1.00
C5       0.50974    0.25983    0.87357   1.00
H2       0.52450    0.23785    0.85471   1.00
H2       0.53268    0.28048    0.88378   1.00
C5       0.47814    0.28200    0.85059   1.00
C5       0.49533    0.29775    0.81219   1.00
H2       0.46762    0.05714    1.18485   1.00
H2       0.51656    0.06553    1.20684   1.00
H2       0.48159    0.10677    1.20191   1.00
H2       0.71965    0.21895    0.96266   1.00
H2       0.71505    0.24449    1.01037   1.00
H2       0.68981    0.19707    1.00241   1.00
H2       0.30763    0.45613    0.99102   1.00
H2       0.32219    0.42656    0.94786   1.00
H2       0.28826    0.40577    0.98482   1.00
H2       0.52833    0.29366    0.81233   1.00
H2       0.48221    0.28116    0.78654   1.00
H2       0.48818    0.33010    0.80929   1.00
C5       0.62570    0.48348    0.61782   1.00
H2       0.61240    0.45819    0.60255   1.00
H2       0.64669    0.47094    0.63910   1.00
C5       0.64717    0.50939    0.58806   1.00
C5       0.68784    0.49271    0.57877   1.00
H2       0.65050    0.53947    0.59985   1.00
O3       0.52109    0.56761    0.77000   1.00
C4       0.49968    0.49972    0.72900   1.00
C3c      0.53282    0.48868    0.70757   1.00
H1       0.55901    0.47983    0.72275   1.00
C3d      0.46567    0.51062    0.70865   1.00
C3       0.53295    0.48938    0.66646   1.00
O2       0.56469    0.47368    0.64752   1.00
C3       0.46594    0.51207    0.66773   1.00
H1       0.43962    0.52194    0.65343   1.00
C2       0.49933    0.50140    0.64561   1.00
C5       0.49089    0.59561    0.77121   1.00
H2       0.48373    0.60467    0.80162   1.00
H2       0.46374    0.58418    0.75734   1.00
C5       0.50478    0.63139    0.74871   1.00
H2       0.51298    0.62214    0.71863   1.00
H2       0.53168    0.64277    0.76302   1.00
C5       0.47290    0.66301    0.74738   1.00
H2       0.46438    0.67219    0.77732   1.00
H2       0.44652    0.65212    0.73189   1.00
C5       0.48807    0.69923    0.72555   1.00
C5       0.40909    0.49298    0.73895   1.00
C5       0.59218    0.50334    0.63930   1.00
H2       0.42441    0.47269    0.75912   1.00
H2       0.39911    0.47622    0.71288   1.00
H2       0.60286    0.51671    0.66700   1.00
H2       0.57962    0.52732    0.62105   1.00
H2       0.63108    0.51066    0.55970   1.00
H2       0.36747    0.46698    0.80753   1.00
H2       0.34320    0.45336    0.76237   1.00
C2       0.49887    0.50243    0.85395   1.00
C3       0.49004    0.46747    0.83403   1.00
O2       0.47188    0.43711    0.85326   1.00
C3       0.50973    0.53550    0.83174   1.00
H1       0.51764    0.56241    0.84615   1.00
C3a      0.49124    0.46658    0.79287   1.00
H1       0.48224    0.44025    0.77798   1.00
C3b      0.50968    0.53488    0.79078   1.00
C4       0.50032    0.50028    0.77100   1.00
O3       0.43328    0.52456    0.72833   1.00
C5       0.49926    0.40788    0.86280   1.00
H2       0.51367    0.39601    0.83609   1.00
C5       0.47694    0.37529    0.88326   1.00
H2       0.52220    0.41948    0.88274   1.00
H2       0.46210    0.35724    0.86068   1.00
H2       0.45346    0.38918    0.90093   1.00
C5       0.50320    0.34967    0.90918   1.00
H2       0.52819    0.33856    0.89176   1.00
C5       0.48023    0.31466    0.92547   1.00
H2       0.51439    0.36631    0.93493   1.00
C5       0.37357    0.50974    0.75983   1.00
H2       0.35471    0.52450    0.73785   1.00
H2       0.38378    0.53268    0.78048   1.00
C5       0.35059    0.47814    0.78200   1.00
C5       0.31219    0.49533    0.79775   1.00
H2       0.68485    0.46762    0.55714   1.00
H2       0.70684    0.51656    0.56553   1.00
H2       0.70191    0.48159    0.60677   1.00
H2       0.46266    0.71965    0.71895   1.00
H2       0.51037    0.71505    0.74449   1.00
H2       0.50241    0.68981    0.69707   1.00
H2       0.49102    0.30763    0.95613   1.00
H2       0.44786    0.32219    0.92656   1.00
H2       0.48482    0.28826    0.90577   1.00
H2       0.31233    0.52833    0.79366   1.00
H2       0.28654    0.48221    0.78116   1.00
H2       0.30929    0.48818    0.83010   1.00
C5       0.62570    1.01652    0.88218   1.00
H2       0.61240    1.04181    0.89745   1.00
H2       0.64669    1.02906    0.86090   1.00
C5       0.64717    0.99061    0.91194   1.00
C5       0.68784    1.00729    0.92123   1.00
H2       0.65050    0.96053    0.90015   1.00
O3       0.52109    0.93239    0.73000   1.00
C4       0.49968    1.00028    0.77100   1.00
C3c      0.53282    1.01132    0.79243   1.00
H1       0.55901    1.02017    0.77725   1.00
C3d      0.46567    0.98938    0.79135   1.00
C3       0.53295    1.01062    0.83354   1.00
O2       0.56469    1.02632    0.85248   1.00
C3       0.46594    0.98793    0.83227   1.00
H1       0.43962    0.97806    0.84657   1.00
C2       0.49933    0.99860    0.85439   1.00
C5       0.49089    0.90439    0.72879   1.00
H2       0.48373    0.89533    0.69838   1.00
H2       0.46374    0.91582    0.74266   1.00
C5       0.50478    0.86861    0.75129   1.00
H2       0.51298    0.87786    0.78137   1.00
H2       0.53168    0.85723    0.73698   1.00
C5       0.47290    0.83699    0.75262   1.00
H2       0.46438    0.82781    0.72268   1.00
H2       0.44652    0.84788    0.76811   1.00
C5       0.48807    0.80077    0.77445   1.00
C5       0.40909    1.00702    0.76105   1.00
C5       0.59218    0.99666    0.86070   1.00
H2       0.42441    1.02731    0.74088   1.00
H2       0.39911    1.02378    0.78712   1.00
H2       0.60286    0.98329    0.83300   1.00
H2       0.57962    0.97268    0.87895   1.00
H2       0.63108    0.98934    0.94030   1.00
H2       0.36747    1.03302    0.69247   1.00
H2       0.34320    1.04664    0.73763   1.00
C2       0.49887    0.99757    0.64605   1.00
C3       0.49004    1.03253    0.66597   1.00
O2       0.47188    1.06289    0.64674   1.00
C3       0.50973    0.96450    0.66826   1.00
H1       0.51764    0.93759    0.65385   1.00
C3a      0.49124    1.03342    0.70713   1.00
H1       0.48224    1.05975    0.72202   1.00
C3b      0.50968    0.96512    0.70922   1.00
C4       0.50032    0.99972    0.72900   1.00
O3       0.43328    0.97544    0.77167   1.00
C5       0.49926    1.09212    0.63720   1.00
H2       0.51367    1.10399    0.66391   1.00
C5       0.47694    1.12471    0.61674   1.00
H2       0.52220    1.08052    0.61726   1.00
H2       0.46210    1.14276    0.63932   1.00
H2       0.45346    1.11082    0.59907   1.00
C5       0.50320    1.15033    0.59082   1.00
H2       0.52819    1.16144    0.60824   1.00
C5       0.48023    1.18534    0.57453   1.00
H2       0.51439    1.13369    0.56507   1.00
C5       0.37357    0.99026    0.74017   1.00
H2       0.35471    0.97550    0.76215   1.00
H2       0.38378    0.96732    0.71952   1.00
C5       0.35059    1.02186    0.71800   1.00
C5       0.31219    1.00467    0.70225   1.00
H2       0.68485    1.03238    0.94286   1.00
H2       0.70684    0.98344    0.93447   1.00
H2       0.70191    1.01841    0.89323   1.00
H2       0.46266    0.78035    0.78105   1.00
H2       0.51037    0.78495    0.75551   1.00
H2       0.50241    0.81019    0.80293   1.00
H2       0.49102    1.19237    0.54387   1.00
H2       0.44786    1.17781    0.57344   1.00
H2       0.48482    1.21174    0.59423   1.00
H2       0.31233    0.97167    0.70634   1.00
H2       0.28654    1.01779    0.71884   1.00
H2       0.30929    1.01182    0.66990   1.00
C5       0.51652    1.38218    0.62570   1.00
H2       0.54181    1.39745    0.61240   1.00
H2       0.52906    1.36090    0.64669   1.00
C5       0.49061    1.41194    0.64717   1.00
C5       0.50729    1.42123    0.68784   1.00
H2       0.46053    1.40015    0.65050   1.00
O3       0.43239    1.23000    0.52109   1.00
C4       0.50028    1.27100    0.49968   1.00
C3c      0.51132    1.29243    0.53282   1.00
H1       0.52017    1.27725    0.55901   1.00
C3d      0.48938    1.29135    0.46567   1.00
C3       0.51062    1.33354    0.53295   1.00
O2       0.52632    1.35248    0.56469   1.00
C3       0.48793    1.33227    0.46594   1.00
H1       0.47806    1.34657    0.43962   1.00
C2       0.49860    1.35439    0.49933   1.00
C5       0.40439    1.22879    0.49089   1.00
H2       0.39533    1.19838    0.48373   1.00
H2       0.41582    1.24266    0.46374   1.00
C5       0.36861    1.25129    0.50478   1.00
H2       0.37786    1.28137    0.51298   1.00
H2       0.35723    1.23698    0.53168   1.00
C5       0.33699    1.25262    0.47290   1.00
H2       0.32781    1.22268    0.46438   1.00
H2       0.34788    1.26811    0.44652   1.00
C5       0.30077    1.27445    0.48807   1.00
C5       0.50702    1.26105    0.40909   1.00
C5       0.49666    1.36070    0.59218   1.00
H2       0.52731    1.24088    0.42441   1.00
H2       0.52378    1.28712    0.39911   1.00
H2       0.48329    1.33300    0.60286   1.00
H2       0.47268    1.37895    0.57962   1.00
H2       0.48934    1.44030    0.63108   1.00
H2       0.53302    1.19247    0.36747   1.00
H2       0.54664    1.23763    0.34320   1.00
C2       0.49757    1.14605    0.49887   1.00
C3       0.53253    1.16597    0.49004   1.00
O2       0.56289    1.14674    0.47188   1.00
C3       0.46450    1.16826    0.50973   1.00
H1       0.43759    1.15385    0.51764   1.00
C3a      0.53342    1.20713    0.49124   1.00
H1       0.55975    1.22202    0.48224   1.00
C3b      0.46512    1.20922    0.50968   1.00
C4       0.49972    1.22900    0.50032   1.00
O3       0.47544    1.27167    0.43328   1.00
C5       0.59212    1.13720    0.49926   1.00
H2       0.60399    1.16391    0.51367   1.00
C5       0.62471    1.11674    0.47694   1.00
H2       0.58052    1.11726    0.52220   1.00
H2       0.64276    1.13932    0.46210   1.00
H2       0.61082    1.09907    0.45346   1.00
C5       0.65033    1.09082    0.50320   1.00
H2       0.66144    1.10824    0.52819   1.00
C5       0.68534    1.07453    0.48023   1.00
H2       0.63369    1.06507    0.51439   1.00
C5       0.49026    1.24017    0.37357   1.00
H2       0.47550    1.26215    0.35471   1.00
H2       0.46732    1.21952    0.38378   1.00
C5       0.52186    1.21800    0.35059   1.00
C5       0.50467    1.20225    0.31219   1.00
H2       0.53238    1.44286    0.68485   1.00
H2       0.48344    1.43447    0.70684   1.00
H2       0.51841    1.39323    0.70191   1.00
H2       0.28035    1.28105    0.46266   1.00
H2       0.28495    1.25551    0.51037   1.00
H2       0.31019    1.30293    0.50241   1.00
H2       0.69237    1.04387    0.49102   1.00
H2       0.67781    1.07344    0.44786   1.00
H2       0.71174    1.09423    0.48482   1.00
H2       0.47167    1.20634    0.31233   1.00
H2       0.51779    1.21884    0.28654   1.00
H2       0.51182    1.16990    0.30929   1.00
C5       0.11782    1.12570    0.48348   1.00
H2       0.10255    1.11240    0.45819   1.00
H2       0.13910    1.14669    0.47094   1.00
C5       0.08806    1.14717    0.50939   1.00
C5       0.07877    1.18784    0.49271   1.00
H2       0.09985    1.15050    0.53947   1.00
O3       0.27000    1.02109    0.56761   1.00
C4       0.22900    0.99968    0.49972   1.00
C3c      0.20757    1.03282    0.48868   1.00
H1       0.22275    1.05901    0.47983   1.00
C3d      0.20865    0.96567    0.51062   1.00
C3       0.16646    1.03295    0.48938   1.00
O2       0.14752    1.06469    0.47368   1.00
C3       0.16773    0.96594    0.51207   1.00
H1       0.15343    0.93962    0.52194   1.00
C2       0.14561    0.99933    0.50140   1.00
C5       0.27121    0.99089    0.59561   1.00
H2       0.30162    0.98373    0.60467   1.00
H2       0.25734    0.96374    0.58418   1.00
C5       0.24871    1.00478    0.63139   1.00
H2       0.21863    1.01298    0.62214   1.00
H2       0.26302    1.03168    0.64277   1.00
C5       0.24738    0.97290    0.66301   1.00
H2       0.27732    0.96438    0.67219   1.00
H2       0.23189    0.94652    0.65212   1.00
C5       0.22555    0.98807    0.69923   1.00
C5       0.23895    0.90909    0.49298   1.00
C5       0.13930    1.09218    0.50334   1.00
H2       0.25912    0.92441    0.47269   1.00
H2       0.21288    0.89911    0.47622   1.00
H2       0.16700    1.10286    0.51671   1.00
H2       0.12105    1.07962    0.52732   1.00
H2       0.05970    1.13108    0.51066   1.00
H2       0.30753    0.86747    0.46698   1.00
H2       0.26237    0.84320    0.45336   1.00
C2       0.35395    0.99887    0.50243   1.00
C3       0.33403    0.99004    0.46747   1.00
O2       0.35326    0.97188    0.43711   1.00
C3       0.33174    1.00973    0.53550   1.00
H1       0.34615    1.01764    0.56241   1.00
C3a      0.29287    0.99124    0.46658   1.00
H1       0.27798    0.98224    0.44025   1.00
C3b      0.29078    1.00968    0.53488   1.00
C4       0.27100    1.00032    0.50028   1.00
O3       0.22833    0.93328    0.52456   1.00
C5       0.36280    0.99926    0.40788   1.00
H2       0.33609    1.01367    0.39601   1.00
C5       0.38326    0.97694    0.37529   1.00
H2       0.38274    1.02220    0.41948   1.00
H2       0.36068    0.96210    0.35724   1.00
H2       0.40093    0.95346    0.38918   1.00
C5       0.40918    1.00320    0.34967   1.00
H2       0.39176    1.02819    0.33856   1.00
C5       0.42547    0.98023    0.31466   1.00
H2       0.43493    1.01439    0.36631   1.00
C5       0.25983    0.87357    0.50974   1.00
H2       0.23785    0.85471    0.52450   1.00
H2       0.28048    0.88378    0.53268   1.00
C5       0.28200    0.85059    0.47814   1.00
C5       0.29775    0.81219    0.49533   1.00
H2       0.05714    1.18485    0.46762   1.00
H2       0.06553    1.20684    0.51656   1.00
H2       0.10677    1.20191    0.48159   1.00
H2       0.21895    0.96266    0.71965   1.00
H2       0.24449    1.01037    0.71505   1.00
H2       0.19707    1.00241    0.68981   1.00
H2       0.45613    0.99102    0.30763   1.00
H2       0.42656    0.94786    0.32219   1.00
H2       0.40577    0.98482    0.28826   1.00
H2       0.29366    0.81233    0.52833   1.00
H2       0.28116    0.78654    0.48221   1.00
H2       0.33010    0.80929    0.48818   1.00
C5       0.88218    1.12570    0.51652   1.00
H2       0.89745    1.11240    0.54181   1.00
H2       0.86090    1.14669    0.52906   1.00
C5       0.91194    1.14717    0.49061   1.00
C5       0.92123    1.18784    0.50729   1.00
H2       0.90015    1.15050    0.46053   1.00
O3       0.73000    1.02109    0.43239   1.00
C4       0.77100    0.99968    0.50028   1.00
C3c      0.79243    1.03282    0.51132   1.00
H1       0.77725    1.05901    0.52017   1.00
C3d      0.79135    0.96567    0.48938   1.00
C3       0.83354    1.03295    0.51062   1.00
O2       0.85248    1.06469    0.52632   1.00
C3       0.83227    0.96594    0.48793   1.00
H1       0.84657    0.93962    0.47806   1.00
C2       0.85439    0.99933    0.49860   1.00
C5       0.72879    0.99089    0.40439   1.00
H2       0.69838    0.98373    0.39533   1.00
H2       0.74266    0.96374    0.41582   1.00
C5       0.75129    1.00478    0.36861   1.00
H2       0.78137    1.01298    0.37786   1.00
H2       0.73698    1.03168    0.35723   1.00
C5       0.75262    0.97290    0.33699   1.00
H2       0.72268    0.96438    0.32781   1.00
H2       0.76811    0.94652    0.34788   1.00
C5       0.77445    0.98807    0.30077   1.00
C5       0.76105    0.90909    0.50702   1.00
C5       0.86070    1.09218    0.49666   1.00
H2       0.74088    0.92441    0.52731   1.00
H2       0.78712    0.89911    0.52378   1.00
H2       0.83300    1.10286    0.48329   1.00
H2       0.87895    1.07962    0.47268   1.00
H2       0.94030    1.13108    0.48934   1.00
H2       0.69247    0.86747    0.53302   1.00
H2       0.73763    0.84320    0.54664   1.00
C2       0.64605    0.99887    0.49757   1.00
C3       0.66597    0.99004    0.53253   1.00
O2       0.64674    0.97188    0.56289   1.00
C3       0.66826    1.00973    0.46450   1.00
H1       0.65385    1.01764    0.43759   1.00
C3a      0.70713    0.99124    0.53342   1.00
H1       0.72202    0.98224    0.55975   1.00
C3b      0.70922    1.00968    0.46512   1.00
C4       0.72900    1.00032    0.49972   1.00
O3       0.77167    0.93328    0.47544   1.00
C5       0.63720    0.99926    0.59212   1.00
H2       0.66391    1.01367    0.60399   1.00
C5       0.61674    0.97694    0.62471   1.00
H2       0.61726    1.02220    0.58052   1.00
H2       0.63932    0.96210    0.64276   1.00
H2       0.59907    0.95346    0.61082   1.00
C5       0.59082    1.00320    0.65033   1.00
H2       0.60824    1.02819    0.66144   1.00
C5       0.57453    0.98023    0.68534   1.00
H2       0.56507    1.01439    0.63369   1.00
C5       0.74017    0.87357    0.49026   1.00
H2       0.76215    0.85471    0.47550   1.00
H2       0.71952    0.88378    0.46732   1.00
C5       0.71800    0.85059    0.52186   1.00
C5       0.70225    0.81219    0.50467   1.00
H2       0.94286    1.18485    0.53238   1.00
H2       0.93447    1.20684    0.48344   1.00
H2       0.89323    1.20191    0.51841   1.00
H2       0.78105    0.96266    0.28035   1.00
H2       0.75551    1.01037    0.28495   1.00
H2       0.80293    1.00241    0.31019   1.00
H2       0.54387    0.99102    0.69237   1.00
H2       0.57344    0.94786    0.67781   1.00
H2       0.59423    0.98482    0.71174   1.00
H2       0.70634    0.81233    0.47167   1.00
H2       0.71884    0.78654    0.51779   1.00
H2       0.66990    0.80929    0.51182   1.00
C5       0.48348    0.61782    0.62570   1.00
H2       0.45819    0.60255    0.61240   1.00
H2       0.47094    0.63910    0.64669   1.00
C5       0.50939    0.58806    0.64717   1.00
C5       0.49271    0.57877    0.68784   1.00
H2       0.53947    0.59985    0.65050   1.00
O3       0.56761    0.77000    0.52109   1.00
C4       0.49972    0.72900    0.49968   1.00
C3c      0.48868    0.70757    0.53282   1.00
H1       0.47983    0.72275    0.55901   1.00
C3d      0.51062    0.70865    0.46567   1.00
C3       0.48938    0.66646    0.53295   1.00
O2       0.47368    0.64752    0.56469   1.00
C3       0.51207    0.66773    0.46594   1.00
H1       0.52194    0.65343    0.43962   1.00
C2       0.50140    0.64561    0.49933   1.00
C5       0.59561    0.77121    0.49089   1.00
H2       0.60467    0.80162    0.48373   1.00
H2       0.58418    0.75734    0.46374   1.00
C5       0.63139    0.74871    0.50478   1.00
H2       0.62214    0.71863    0.51298   1.00
H2       0.64277    0.76302    0.53168   1.00
C5       0.66301    0.74738    0.47290   1.00
H2       0.67219    0.77732    0.46438   1.00
H2       0.65212    0.73189    0.44652   1.00
C5       0.69923    0.72555    0.48807   1.00
C5       0.49298    0.73895    0.40909   1.00
C5       0.50334    0.63930    0.59218   1.00
H2       0.47269    0.75912    0.42441   1.00
H2       0.47622    0.71288    0.39911   1.00
H2       0.51671    0.66700    0.60286   1.00
H2       0.52732    0.62105    0.57962   1.00
H2       0.51066    0.55970    0.63108   1.00
H2       0.46698    0.80753    0.36747   1.00
H2       0.45336    0.76237    0.34320   1.00
C2       0.50243    0.85395    0.49887   1.00
C3       0.46747    0.83403    0.49004   1.00
O2       0.43711    0.85326    0.47188   1.00
C3       0.53550    0.83174    0.50973   1.00
H1       0.56241    0.84615    0.51764   1.00
C3a      0.46658    0.79287    0.49124   1.00
H1       0.44025    0.77798    0.48224   1.00
C3b      0.53488    0.79078    0.50968   1.00
C4       0.50028    0.77100    0.50032   1.00
O3       0.52456    0.72833    0.43328   1.00
C5       0.40788    0.86280    0.49926   1.00
H2       0.39601    0.83609    0.51367   1.00
C5       0.37529    0.88326    0.47694   1.00
H2       0.41948    0.88274    0.52220   1.00
H2       0.35724    0.86068    0.46210   1.00
H2       0.38918    0.90093    0.45346   1.00
C5       0.34967    0.90918    0.50320   1.00
H2       0.33856    0.89176    0.52819   1.00
C5       0.31466    0.92547    0.48023   1.00
H2       0.36631    0.93493    0.51439   1.00
C5       0.50974    0.75983    0.37357   1.00
H2       0.52450    0.73785    0.35471   1.00
H2       0.53268    0.78048    0.38378   1.00
C5       0.47814    0.78200    0.35059   1.00
C5       0.49533    0.79775    0.31219   1.00
H2       0.46762    0.55714    0.68485   1.00
H2       0.51656    0.56553    0.70684   1.00
H2       0.48159    0.60677    0.70191   1.00
H2       0.71965    0.71895    0.46266   1.00
H2       0.71505    0.74449    0.51037   1.00
H2       0.68981    0.69707    0.50241   1.00
H2       0.30763    0.95613    0.49102   1.00
H2       0.32219    0.92656    0.44786   1.00
H2       0.28826    0.90577    0.48482   1.00
H2       0.52833    0.79366    0.31233   1.00
H2       0.48221    0.78116    0.28654   1.00
H2       0.48818    0.83010    0.30929   1.00
C5       0.62570    0.98348    0.11782   1.00
H2       0.61240    0.95819    0.10255   1.00
H2       0.64669    0.97094    0.13910   1.00
C5       0.64717    1.00939    0.08806   1.00
C5       0.68784    0.99271    0.07877   1.00
H2       0.65050    1.03947    0.09985   1.00
O3       0.52109    1.06761    0.27000   1.00
C4       0.49968    0.99972    0.22900   1.00
C3c      0.53282    0.98868    0.20757   1.00
H1       0.55901    0.97983    0.22275   1.00
C3d      0.46567    1.01062    0.20865   1.00
C3       0.53295    0.98938    0.16646   1.00
O2       0.56469    0.97368    0.14752   1.00
C3       0.46594    1.01207    0.16773   1.00
H1       0.43962    1.02194    0.15343   1.00
C2       0.49933    1.00140    0.14561   1.00
C5       0.49089    1.09561    0.27121   1.00
H2       0.48373    1.10467    0.30162   1.00
H2       0.46374    1.08418    0.25734   1.00
C5       0.50478    1.13139    0.24871   1.00
H2       0.51298    1.12214    0.21863   1.00
H2       0.53168    1.14277    0.26302   1.00
C5       0.47290    1.16301    0.24738   1.00
H2       0.46438    1.17219    0.27732   1.00
H2       0.44652    1.15212    0.23189   1.00
C5       0.48807    1.19923    0.22555   1.00
C5       0.40909    0.99298    0.23895   1.00
C5       0.59218    1.00334    0.13930   1.00
H2       0.42441    0.97269    0.25912   1.00
H2       0.39911    0.97622    0.21288   1.00
H2       0.60286    1.01671    0.16700   1.00
H2       0.57962    1.02732    0.12105   1.00
H2       0.63108    1.01066    0.05970   1.00
H2       0.36747    0.96698    0.30753   1.00
H2       0.34320    0.95336    0.26237   1.00
C2       0.49887    1.00243    0.35395   1.00
C3       0.49004    0.96747    0.33403   1.00
O2       0.47188    0.93711    0.35326   1.00
C3       0.50973    1.03550    0.33174   1.00
H1       0.51764    1.06241    0.34615   1.00
C3a      0.49124    0.96658    0.29287   1.00
H1       0.48224    0.94025    0.27798   1.00
C3b      0.50968    1.03488    0.29078   1.00
C4       0.50032    1.00028    0.27100   1.00
O3       0.43328    1.02456    0.22833   1.00
C5       0.49926    0.90788    0.36280   1.00
H2       0.51367    0.89601    0.33609   1.00
C5       0.47694    0.87529    0.38326   1.00
H2       0.52220    0.91948    0.38274   1.00
H2       0.46210    0.85724    0.36068   1.00
H2       0.45346    0.88918    0.40093   1.00
C5       0.50320    0.84967    0.40918   1.00
H2       0.52819    0.83856    0.39176   1.00
C5       0.48023    0.81466    0.42547   1.00
H2       0.51439    0.86631    0.43493   1.00
C5       0.37357    1.00974    0.25983   1.00
H2       0.35471    1.02450    0.23785   1.00
H2       0.38378    1.03268    0.28048   1.00
C5       0.35059    0.97814    0.28200   1.00
C5       0.31219    0.99533    0.29775   1.00
H2       0.68485    0.96762    0.05714   1.00
H2       0.70684    1.01656    0.06553   1.00
H2       0.70191    0.98159    0.10677   1.00
H2       0.46266    1.21965    0.21895   1.00
H2       0.51037    1.21505    0.24449   1.00
H2       0.50241    1.18981    0.19707   1.00
H2       0.49102    0.80763    0.45613   1.00
H2       0.44786    0.82219    0.42656   1.00
H2       0.48482    0.78826    0.40577   1.00
H2       0.31233    1.02833    0.29366   1.00
H2       0.28654    0.98221    0.28116   1.00
H2       0.30929    0.98818    0.33010   1.00
C5       1.12570    0.51652    0.88218   1.00
H2       1.11240    0.54181    0.89745   1.00
H2       1.14669    0.52906    0.86090   1.00
C5       1.14717    0.49061    0.91194   1.00
C5       1.18784    0.50729    0.92123   1.00
H2       1.15050    0.46053    0.90015   1.00
O3       1.02109    0.43239    0.73000   1.00
C4       0.99968    0.50028    0.77100   1.00
C3c      1.03282    0.51132    0.79243   1.00
H1       1.05901    0.52017    0.77725   1.00
C3d      0.96567    0.48938    0.79135   1.00
C3       1.03295    0.51062    0.83354   1.00
O2       1.06469    0.52632    0.85248   1.00
C3       0.96594    0.48793    0.83227   1.00
H1       0.93962    0.47806    0.84657   1.00
C2       0.99933    0.49860    0.85439   1.00
C5       0.99089    0.40439    0.72879   1.00
H2       0.98373    0.39533    0.69838   1.00
H2       0.96374    0.41582    0.74266   1.00
C5       1.00478    0.36861    0.75129   1.00
H2       1.01298    0.37786    0.78137   1.00
H2       1.03168    0.35723    0.73698   1.00
C5       0.97290    0.33699    0.75262   1.00
H2       0.96438    0.32781    0.72268   1.00
H2       0.94652    0.34788    0.76811   1.00
C5       0.98807    0.30077    0.77445   1.00
C5       0.90909    0.50702    0.76105   1.00
C5       1.09218    0.49666    0.86070   1.00
H2       0.92441    0.52731    0.74088   1.00
H2       0.89911    0.52378    0.78712   1.00
H2       1.10286    0.48329    0.83300   1.00
H2       1.07962    0.47268    0.87895   1.00
H2       1.13108    0.48934    0.94030   1.00
H2       0.86747    0.53302    0.69247   1.00
H2       0.84320    0.54664    0.73763   1.00
C2       0.99887    0.49757    0.64605   1.00
C3       0.99004    0.53253    0.66597   1.00
O2       0.97188    0.56289    0.64674   1.00
C3       1.00973    0.46450    0.66826   1.00
H1       1.01764    0.43759    0.65385   1.00
C3a      0.99124    0.53342    0.70713   1.00
H1       0.98224    0.55975    0.72202   1.00
C3b      1.00968    0.46512    0.70922   1.00
C4       1.00032    0.49972    0.72900   1.00
O3       0.93328    0.47544    0.77167   1.00
C5       0.99926    0.59212    0.63720   1.00
H2       1.01367    0.60399    0.66391   1.00
C5       0.97694    0.62471    0.61674   1.00
H2       1.02220    0.58052    0.61726   1.00
H2       0.96210    0.64276    0.63932   1.00
H2       0.95346    0.61082    0.59907   1.00
C5       1.00320    0.65033    0.59082   1.00
H2       1.02819    0.66144    0.60824   1.00
C5       0.98023    0.68534    0.57453   1.00
H2       1.01439    0.63369    0.56507   1.00
C5       0.87357    0.49026    0.74017   1.00
H2       0.85471    0.47550    0.76215   1.00
H2       0.88378    0.46732    0.71952   1.00
C5       0.85059    0.52186    0.71800   1.00
C5       0.81219    0.50467    0.70225   1.00
H2       1.18485    0.53238    0.94286   1.00
H2       1.20684    0.48344    0.93447   1.00
H2       1.20191    0.51841    0.89323   1.00
H2       0.96266    0.28035    0.78105   1.00
H2       1.01037    0.28495    0.75551   1.00
H2       1.00241    0.31019    0.80293   1.00
H2       0.99102    0.69237    0.54387   1.00
H2       0.94786    0.67781    0.57344   1.00
H2       0.98482    0.71174    0.59423   1.00
H2       0.81233    0.47167    0.70634   1.00
H2       0.78654    0.51779    0.71884   1.00
H2       0.80929    0.51182    0.66990   1.00
C5       1.01652    0.88218    0.62570   1.00
H2       1.04181    0.89745    0.61240   1.00
H2       1.02906    0.86090    0.64669   1.00
C5       0.99061    0.91194    0.64717   1.00
C5       1.00729    0.92123    0.68784   1.00
H2       0.96053    0.90015    0.65050   1.00
O3       0.93239    0.73000    0.52109   1.00
C4       1.00028    0.77100    0.49968   1.00
C3c      1.01132    0.79243    0.53282   1.00
H1       1.02017    0.77725    0.55901   1.00
C3d      0.98938    0.79135    0.46567   1.00
C3       1.01062    0.83354    0.53295   1.00
O2       1.02632    0.85248    0.56469   1.00
C3       0.98793    0.83227    0.46594   1.00
H1       0.97806    0.84657    0.43962   1.00
C2       0.99860    0.85439    0.49933   1.00
C5       0.90439    0.72879    0.49089   1.00
H2       0.89533    0.69838    0.48373   1.00
H2       0.91582    0.74266    0.46374   1.00
C5       0.86861    0.75129    0.50478   1.00
H2       0.87786    0.78137    0.51298   1.00
H2       0.85723    0.73698    0.53168   1.00
C5       0.83699    0.75262    0.47290   1.00
H2       0.82781    0.72268    0.46438   1.00
H2       0.84788    0.76811    0.44652   1.00
C5       0.80077    0.77445    0.48807   1.00
C5       1.00702    0.76105    0.40909   1.00
C5       0.99666    0.86070    0.59218   1.00
H2       1.02731    0.74088    0.42441   1.00
H2       1.02378    0.78712    0.39911   1.00
H2       0.98329    0.83300    0.60286   1.00
H2       0.97268    0.87895    0.57962   1.00
H2       0.98934    0.94030    0.63108   1.00
H2       1.03302    0.69247    0.36747   1.00
H2       1.04664    0.73763    0.34320   1.00
C2       0.99757    0.64605    0.49887   1.00
C3       1.03253    0.66597    0.49004   1.00
O2       1.06289    0.64674    0.47188   1.00
C3       0.96450    0.66826    0.50973   1.00
H1       0.93759    0.65385    0.51764   1.00
C3a      1.03342    0.70713    0.49124   1.00
H1       1.05975    0.72202    0.48224   1.00
C3b      0.96512    0.70922    0.50968   1.00
C4       0.99972    0.72900    0.50032   1.00
O3       0.97544    0.77167    0.43328   1.00
C5       1.09212    0.63720    0.49926   1.00
H2       1.10399    0.66391    0.51367   1.00
C5       1.12471    0.61674    0.47694   1.00
H2       1.08052    0.61726    0.52220   1.00
H2       1.14276    0.63932    0.46210   1.00
H2       1.11082    0.59907    0.45346   1.00
C5       1.15033    0.59082    0.50320   1.00
H2       1.16144    0.60824    0.52819   1.00
C5       1.18534    0.57453    0.48023   1.00
H2       1.13369    0.56507    0.51439   1.00
C5       0.99026    0.74017    0.37357   1.00
H2       0.97550    0.76215    0.35471   1.00
H2       0.96732    0.71952    0.38378   1.00
C5       1.02186    0.71800    0.35059   1.00
C5       1.00467    0.70225    0.31219   1.00
H2       1.03238    0.94286    0.68485   1.00
H2       0.98344    0.93447    0.70684   1.00
H2       1.01841    0.89323    0.70191   1.00
H2       0.78035    0.78105    0.46266   1.00
H2       0.78495    0.75551    0.51037   1.00
H2       0.81019    0.80293    0.50241   1.00
H2       1.19237    0.54387    0.49102   1.00
H2       1.17781    0.57344    0.44786   1.00
H2       1.21174    0.59423    0.48482   1.00
H2       0.97167    0.70634    0.31233   1.00
H2       1.01779    0.71884    0.28654   1.00
H2       1.01182    0.66990    0.30929   1.00
C5       0.61782    0.62570    0.48348   1.00
H2       0.60255    0.61240    0.45819   1.00
H2       0.63910    0.64669    0.47094   1.00
C5       0.58806    0.64717    0.50939   1.00
C5       0.57877    0.68784    0.49271   1.00
H2       0.59985    0.65050    0.53947   1.00
O3       0.77000    0.52109    0.56761   1.00
C4       0.72900    0.49968    0.49972   1.00
C3c      0.70757    0.53282    0.48868   1.00
H1       0.72275    0.55901    0.47983   1.00
C3d      0.70865    0.46567    0.51062   1.00
C3       0.66646    0.53295    0.48938   1.00
O2       0.64752    0.56469    0.47368   1.00
C3       0.66773    0.46594    0.51207   1.00
H1       0.65343    0.43962    0.52194   1.00
C2       0.64561    0.49933    0.50140   1.00
C5       0.77121    0.49089    0.59561   1.00
H2       0.80162    0.48373    0.60467   1.00
H2       0.75734    0.46374    0.58418   1.00
C5       0.74871    0.50478    0.63139   1.00
H2       0.71863    0.51298    0.62214   1.00
H2       0.76302    0.53168    0.64277   1.00
C5       0.74738    0.47290    0.66301   1.00
H2       0.77732    0.46438    0.67219   1.00
H2       0.73189    0.44652    0.65212   1.00
C5       0.72555    0.48807    0.69923   1.00
C5       0.73895    0.40909    0.49298   1.00
C5       0.63930    0.59218    0.50334   1.00
H2       0.75912    0.42441    0.47269   1.00
H2       0.71288    0.39911    0.47622   1.00
H2       0.66700    0.60286    0.51671   1.00
H2       0.62105    0.57962    0.52732   1.00
H2       0.55970    0.63108    0.51066   1.00
H2       0.80753    0.36747    0.46698   1.00
H2       0.76237    0.34320    0.45336   1.00
C2       0.85395    0.49887    0.50243   1.00
C3       0.83403    0.49004    0.46747   1.00
O2       0.85326    0.47188    0.43711   1.00
C3       0.83174    0.50973    0.53550   1.00
H1       0.84615    0.51764    0.56241   1.00
C3a      0.79287    0.49124    0.46658   1.00
H1       0.77798    0.48224    0.44025   1.00
C3b      0.79078    0.50968    0.53488   1.00
C4       0.77100    0.50032    0.50028   1.00
O3       0.72833    0.43328    0.52456   1.00
C5       0.86280    0.49926    0.40788   1.00
H2       0.83609    0.51367    0.39601   1.00
C5       0.88326    0.47694    0.37529   1.00
H2       0.88274    0.52220    0.41948   1.00
H2       0.86068    0.46210    0.35724   1.00
H2       0.90093    0.45346    0.38918   1.00
C5       0.90918    0.50320    0.34967   1.00
H2       0.89176    0.52819    0.33856   1.00
C5       0.92547    0.48023    0.31466   1.00
H2       0.93493    0.51439    0.36631   1.00
C5       0.75983    0.37357    0.50974   1.00
H2       0.73785    0.35471    0.52450   1.00
H2       0.78048    0.38378    0.53268   1.00
C5       0.78200    0.35059    0.47814   1.00
C5       0.79775    0.31219    0.49533   1.00
H2       0.55714    0.68485    0.46762   1.00
H2       0.56553    0.70684    0.51656   1.00
H2       0.60677    0.70191    0.48159   1.00
H2       0.71895    0.46266    0.71965   1.00
H2       0.74449    0.51037    0.71505   1.00
H2       0.69707    0.50241    0.68981   1.00
H2       0.95613    0.49102    0.30763   1.00
H2       0.92656    0.44786    0.32219   1.00
H2       0.90577    0.48482    0.28826   1.00
H2       0.79366    0.31233    0.52833   1.00
H2       0.78116    0.28654    0.48221   1.00
H2       0.83010    0.30929    0.48818   1.00
C5       1.38218    0.62570    0.51652   1.00
H2       1.39745    0.61240    0.54181   1.00
H2       1.36090    0.64669    0.52906   1.00
C5       1.41194    0.64717    0.49061   1.00
C5       1.42123    0.68784    0.50729   1.00
H2       1.40015    0.65050    0.46053   1.00
O3       1.23000    0.52109    0.43239   1.00
C4       1.27100    0.49968    0.50028   1.00
C3c      1.29243    0.53282    0.51132   1.00
H1       1.27725    0.55901    0.52017   1.00
C3d      1.29135    0.46567    0.48938   1.00
C3       1.33354    0.53295    0.51062   1.00
O2       1.35248    0.56469    0.52632   1.00
C3       1.33227    0.46594    0.48793   1.00
H1       1.34657    0.43962    0.47806   1.00
C2       1.35439    0.49933    0.49860   1.00
C5       1.22879    0.49089    0.40439   1.00
H2       1.19838    0.48373    0.39533   1.00
H2       1.24266    0.46374    0.41582   1.00
C5       1.25129    0.50478    0.36861   1.00
H2       1.28137    0.51298    0.37786   1.00
H2       1.23698    0.53168    0.35723   1.00
C5       1.25262    0.47290    0.33699   1.00
H2       1.22268    0.46438    0.32781   1.00
H2       1.26811    0.44652    0.34788   1.00
C5       1.27445    0.48807    0.30077   1.00
C5       1.26105    0.40909    0.50702   1.00
C5       1.36070    0.59218    0.49666   1.00
H2       1.24088    0.42441    0.52731   1.00
H2       1.28712    0.39911    0.52378   1.00
H2       1.33300    0.60286    0.48329   1.00
H2       1.37895    0.57962    0.47268   1.00
H2       1.44030    0.63108    0.48934   1.00
H2       1.19247    0.36747    0.53302   1.00
H2       1.23763    0.34320    0.54664   1.00
C2       1.14605    0.49887    0.49757   1.00
C3       1.16597    0.49004    0.53253   1.00
O2       1.14674    0.47188    0.56289   1.00
C3       1.16826    0.50973    0.46450   1.00
H1       1.15385    0.51764    0.43759   1.00
C3a      1.20713    0.49124    0.53342   1.00
H1       1.22202    0.48224    0.55975   1.00
C3b      1.20922    0.50968    0.46512   1.00
C4       1.22900    0.50032    0.49972   1.00
O3       1.27167    0.43328    0.47544   1.00
C5       1.13720    0.49926    0.59212   1.00
H2       1.16391    0.51367    0.60399   1.00
C5       1.11674    0.47694    0.62471   1.00
H2       1.11726    0.52220    0.58052   1.00
H2       1.13932    0.46210    0.64276   1.00
H2       1.09907    0.45346    0.61082   1.00
C5       1.09082    0.50320    0.65033   1.00
H2       1.10824    0.52819    0.66144   1.00
C5       1.07453    0.48023    0.68534   1.00
H2       1.06507    0.51439    0.63369   1.00
C5       1.24017    0.37357    0.49026   1.00
H2       1.26215    0.35471    0.47550   1.00
H2       1.21952    0.38378    0.46732   1.00
C5       1.21800    0.35059    0.52186   1.00
C5       1.20225    0.31219    0.50467   1.00
H2       1.44286    0.68485    0.53238   1.00
H2       1.43447    0.70684    0.48344   1.00
H2       1.39323    0.70191    0.51841   1.00
H2       1.28105    0.46266    0.28035   1.00
H2       1.25551    0.51037    0.28495   1.00
H2       1.30293    0.50241    0.31019   1.00
H2       1.04387    0.49102    0.69237   1.00
H2       1.07344    0.44786    0.67781   1.00
H2       1.09423    0.48482    0.71174   1.00
H2       1.20634    0.31233    0.47167   1.00
H2       1.21884    0.28654    0.51779   1.00
H2       1.16990    0.30929    0.51182   1.00
C5       0.98348    0.11782    0.62570   1.00
H2       0.95819    0.10255    0.61240   1.00
H2       0.97094    0.13910    0.64669   1.00
C5       1.00939    0.08806    0.64717   1.00
C5       0.99271    0.07877    0.68784   1.00
H2       1.03947    0.09985    0.65050   1.00
O3       1.06761    0.27000    0.52109   1.00
C4       0.99972    0.22900    0.49968   1.00
C3c      0.98868    0.20757    0.53282   1.00
H1       0.97983    0.22275    0.55901   1.00
C3d      1.01062    0.20865    0.46567   1.00
C3       0.98938    0.16646    0.53295   1.00
O2       0.97368    0.14752    0.56469   1.00
C3       1.01207    0.16773    0.46594   1.00
H1       1.02194    0.15343    0.43962   1.00
C2       1.00140    0.14561    0.49933   1.00
C5       1.09561    0.27121    0.49089   1.00
H2       1.10467    0.30162    0.48373   1.00
H2       1.08418    0.25734    0.46374   1.00
C5       1.13139    0.24871    0.50478   1.00
H2       1.12214    0.21863    0.51298   1.00
H2       1.14277    0.26302    0.53168   1.00
C5       1.16301    0.24738    0.47290   1.00
H2       1.17219    0.27732    0.46438   1.00
H2       1.15212    0.23189    0.44652   1.00
C5       1.19923    0.22555    0.48807   1.00
C5       0.99298    0.23895    0.40909   1.00
C5       1.00334    0.13930    0.59218   1.00
H2       0.97269    0.25912    0.42441   1.00
H2       0.97622    0.21288    0.39911   1.00
H2       1.01671    0.16700    0.60286   1.00
H2       1.02732    0.12105    0.57962   1.00
H2       1.01066    0.05970    0.63108   1.00
H2       0.96698    0.30753    0.36747   1.00
H2       0.95336    0.26237    0.34320   1.00
C2       1.00243    0.35395    0.49887   1.00
C3       0.96747    0.33403    0.49004   1.00
O2       0.93711    0.35326    0.47188   1.00
C3       1.03550    0.33174    0.50973   1.00
H1       1.06241    0.34615    0.51764   1.00
C3a      0.96658    0.29287    0.49124   1.00
H1       0.94025    0.27798    0.48224   1.00
C3b      1.03488    0.29078    0.50968   1.00
C4       1.00028    0.27100    0.50032   1.00
O3       1.02456    0.22833    0.43328   1.00
C5       0.90788    0.36280    0.49926   1.00
H2       0.89601    0.33609    0.51367   1.00
C5       0.87529    0.38326    0.47694   1.00
H2       0.91948    0.38274    0.52220   1.00
H2       0.85724    0.36068    0.46210   1.00
H2       0.88918    0.40093    0.45346   1.00
C5       0.84967    0.40918    0.50320   1.00
H2       0.83856    0.39176    0.52819   1.00
C5       0.81466    0.42547    0.48023   1.00
H2       0.86631    0.43493    0.51439   1.00
C5       1.00974    0.25983    0.37357   1.00
H2       1.02450    0.23785    0.35471   1.00
H2       1.03268    0.28048    0.38378   1.00
C5       0.97814    0.28200    0.35059   1.00
C5       0.99533    0.29775    0.31219   1.00
H2       0.96762    0.05714    0.68485   1.00
H2       1.01656    0.06553    0.70684   1.00
H2       0.98159    0.10677    0.70191   1.00
H2       1.21965    0.21895    0.46266   1.00
H2       1.21505    0.24449    0.51037   1.00
H2       1.18981    0.19707    0.50241   1.00
H2       0.80763    0.45613    0.49102   1.00
H2       0.82219    0.42656    0.44786   1.00
H2       0.78826    0.40577    0.48482   1.00
H2       1.02833    0.29366    0.31233   1.00
H2       0.98221    0.28116    0.28654   1.00
H2       0.98818    0.33010    0.30929   1.00
C5       1.12570    0.48348    0.11782   1.00
H2       1.11240    0.45819    0.10255   1.00
H2       1.14669    0.47094    0.13910   1.00
C5       1.14717    0.50939    0.08806   1.00
C5       1.18784    0.49271    0.07877   1.00
H2       1.15050    0.53947    0.09985   1.00
O3       1.02109    0.56761    0.27000   1.00
C4       0.99968    0.49972    0.22900   1.00
C3c      1.03282    0.48868    0.20757   1.00
H1       1.05901    0.47983    0.22275   1.00
C3d      0.96567    0.51062    0.20865   1.00
C3       1.03295    0.48938    0.16646   1.00
O2       1.06469    0.47368    0.14752   1.00
C3       0.96594    0.51207    0.16773   1.00
H1       0.93962    0.52194    0.15343   1.00
C2       0.99933    0.50140    0.14561   1.00
C5       0.99089    0.59561    0.27121   1.00
H2       0.98373    0.60467    0.30162   1.00
H2       0.96374    0.58418    0.25734   1.00
C5       1.00478    0.63139    0.24871   1.00
H2       1.01298    0.62214    0.21863   1.00
H2       1.03168    0.64277    0.26302   1.00
C5       0.97290    0.66301    0.24738   1.00
H2       0.96438    0.67219    0.27732   1.00
H2       0.94652    0.65212    0.23189   1.00
C5       0.98807    0.69923    0.22555   1.00
C5       0.90909    0.49298    0.23895   1.00
C5       1.09218    0.50334    0.13930   1.00
H2       0.92441    0.47269    0.25912   1.00
H2       0.89911    0.47622    0.21288   1.00
H2       1.10286    0.51671    0.16700   1.00
H2       1.07962    0.52732    0.12105   1.00
H2       1.13108    0.51066    0.05970   1.00
H2       0.86747    0.46698    0.30753   1.00
H2       0.84320    0.45336    0.26237   1.00
C2       0.99887    0.50243    0.35395   1.00
C3       0.99004    0.46747    0.33403   1.00
O2       0.97188    0.43711    0.35326   1.00
C3       1.00973    0.53550    0.33174   1.00
H1       1.01764    0.56241    0.34615   1.00
C3a      0.99124    0.46658    0.29287   1.00
H1       0.98224    0.44025    0.27798   1.00
C3b      1.00968    0.53488    0.29078   1.00
C4       1.00032    0.50028    0.27100   1.00
O3       0.93328    0.52456    0.22833   1.00
C5       0.99926    0.40788    0.36280   1.00
H2       1.01367    0.39601    0.33609   1.00
C5       0.97694    0.37529    0.38326   1.00
H2       1.02220    0.41948    0.38274   1.00
H2       0.96210    0.35724    0.36068   1.00
H2       0.95346    0.38918    0.40093   1.00
C5       1.00320    0.34967    0.40918   1.00
H2       1.02819    0.33856    0.39176   1.00
C5       0.98023    0.31466    0.42547   1.00
H2       1.01439    0.36631    0.43493   1.00
C5       0.87357    0.50974    0.25983   1.00
H2       0.85471    0.52450    0.23785   1.00
H2       0.88378    0.53268    0.28048   1.00
C5       0.85059    0.47814    0.28200   1.00
C5       0.81219    0.49533    0.29775   1.00
H2       1.18485    0.46762    0.05714   1.00
H2       1.20684    0.51656    0.06553   1.00
H2       1.20191    0.48159    0.10677   1.00
H2       0.96266    0.71965    0.21895   1.00
H2       1.01037    0.71505    0.24449   1.00
H2       1.00241    0.68981    0.19707   1.00
H2       0.99102    0.30763    0.45613   1.00
H2       0.94786    0.32219    0.42656   1.00
H2       0.98482    0.28826    0.40577   1.00
H2       0.81233    0.52833    0.29366   1.00
H2       0.78654    0.48221    0.28116   1.00
H2       0.80929    0.48818    0.33010   1.00
