data_IRMOF10_SG202_interpen_Ligand3lp_label_v.

_audit_creation_method             'generated by an auxiliary program of Tobunporous'

_symmetry_space_group_name_H-M     'P 1'
_symmetry_Int_Tables_number        1
_symmetry_cell_setting             triclinic

_cell_length_a                    34.2800
_cell_length_b                    34.2800
_cell_length_c                    34.2800
_cell_angle_alpha                 90.0000
_cell_angle_beta                  90.0000
_cell_angle_gamma                 90.0000

loop_
_atom_site_label
_atom_site_fract_x
_atom_site_fract_y
_atom_site_fract_z
_atom_site_occupancy
O1       0.75000    0.75000    0.75000   1.00
Zn1      0.71720    0.78280    0.78280   1.00
Zn1      0.78280    0.71720    0.78280   1.00
Zn1      0.78280    0.78280    0.71720   1.00
Zn1      0.71720    0.71720    0.71720   1.00
O2       0.72650    0.77350    0.83820   1.00
O2       0.72650    0.83820    0.77350   1.00
O2       0.66180    0.77350    0.77350   1.00
O2       0.77350    0.72650    0.83820   1.00
O2       0.83820    0.72650    0.77350   1.00
O2       0.77350    0.66180    0.77350   1.00
O2       0.77350    0.83820    0.72650   1.00
O2       0.83820    0.77350    0.72650   1.00
O2       0.77350    0.77350    0.66180   1.00
O2       0.66180    0.72650    0.72650   1.00
O2       0.72650    0.66180    0.72650   1.00
O2       0.72650    0.72650    0.66180   1.00
C1       0.75000    0.75000    0.85520   1.00
C1       0.75000    0.85520    0.75000   1.00
C1       0.64480    0.75000    0.75000   1.00
C1       0.85520    0.75000    0.75000   1.00
C1       0.75000    0.64480    0.75000   1.00
C1       0.75000    0.75000    0.64480   1.00
O1       0.25000    0.25000    0.75000   1.00
Zn1      0.21720    0.28280    0.78280   1.00
Zn1      0.28280    0.21720    0.78280   1.00
Zn1      0.28280    0.28280    0.71720   1.00
Zn1      0.21720    0.21720    0.71720   1.00
O2       0.22650    0.27350    0.83820   1.00
O2       0.22650    0.33820    0.77350   1.00
O2       0.16180    0.27350    0.77350   1.00
O2       0.27350    0.22650    0.83820   1.00
O2       0.33820    0.22650    0.77350   1.00
O2       0.27350    0.16180    0.77350   1.00
O2       0.27350    0.33820    0.72650   1.00
O2       0.33820    0.27350    0.72650   1.00
O2       0.27350    0.27350    0.66180   1.00
O2       0.16180    0.22650    0.72650   1.00
O2       0.22650    0.16180    0.72650   1.00
O2       0.22650    0.22650    0.66180   1.00
C1       0.25000    0.25000    0.85520   1.00
C1       0.25000    0.35520    0.75000   1.00
C1       0.14480    0.25000    0.75000   1.00
C1       0.35520    0.25000    0.75000   1.00
C1       0.25000    0.14480    0.75000   1.00
C1       0.25000    0.25000    0.64480   1.00
O1       0.25000    0.75000    0.25000   1.00
Zn1      0.21720    0.78280    0.28280   1.00
Zn1      0.28280    0.71720    0.28280   1.00
Zn1      0.28280    0.78280    0.21720   1.00
Zn1      0.21720    0.71720    0.21720   1.00
O2       0.22650    0.77350    0.33820   1.00
O2       0.22650    0.83820    0.27350   1.00
O2       0.16180    0.77350    0.27350   1.00
O2       0.27350    0.72650    0.33820   1.00
O2       0.33820    0.72650    0.27350   1.00
O2       0.27350    0.66180    0.27350   1.00
O2       0.27350    0.83820    0.22650   1.00
O2       0.33820    0.77350    0.22650   1.00
O2       0.27350    0.77350    0.16180   1.00
O2       0.16180    0.72650    0.22650   1.00
O2       0.22650    0.66180    0.22650   1.00
O2       0.22650    0.72650    0.16180   1.00
C1       0.25000    0.75000    0.35520   1.00
C1       0.25000    0.85520    0.25000   1.00
C1       0.14480    0.75000    0.25000   1.00
C1       0.35520    0.75000    0.25000   1.00
C1       0.25000    0.64480    0.25000   1.00
C1       0.25000    0.75000    0.14480   1.00
O1       0.75000    0.25000    0.25000   1.00
Zn1      0.71720    0.28280    0.28280   1.00
Zn1      0.78280    0.21720    0.28280   1.00
Zn1      0.78280    0.28280    0.21720   1.00
Zn1      0.71720    0.21720    0.21720   1.00
O2       0.72650    0.27350    0.33820   1.00
O2       0.72650    0.33820    0.27350   1.00
O2       0.66180    0.27350    0.27350   1.00
O2       0.77350    0.22650    0.33820   1.00
O2       0.83820    0.22650    0.27350   1.00
O2       0.77350    0.16180    0.27350   1.00
O2       0.77350    0.33820    0.22650   1.00
O2       0.83820    0.27350    0.22650   1.00
O2       0.77350    0.27350    0.16180   1.00
O2       0.66180    0.22650    0.22650   1.00
O2       0.72650    0.16180    0.22650   1.00
O2       0.72650    0.22650    0.16180   1.00
C1       0.75000    0.25000    0.35520   1.00
C1       0.75000    0.35520    0.25000   1.00
C1       0.64480    0.25000    0.25000   1.00
C1       0.85520    0.25000    0.25000   1.00
C1       0.75000    0.14480    0.25000   1.00
C1       0.75000    0.25000    0.14480   1.00
O1       0.25000    0.25000    0.25000   1.00
Zn1      0.28280    0.21720    0.21720   1.00
Zn1      0.21720    0.28280    0.21720   1.00
Zn1      0.21720    0.21720    0.28280   1.00
Zn1      0.28280    0.28280    0.28280   1.00
O2       0.27350    0.22650    0.16180   1.00
O2       0.27350    0.16180    0.22650   1.00
O2       0.33820    0.22650    0.22650   1.00
O2       0.22650    0.27350    0.16180   1.00
O2       0.16180    0.27350    0.22650   1.00
O2       0.22650    0.33820    0.22650   1.00
O2       0.22650    0.16180    0.27350   1.00
O2       0.16180    0.22650    0.27350   1.00
O2       0.22650    0.22650    0.33820   1.00
O2       0.33820    0.27350    0.27350   1.00
O2       0.27350    0.33820    0.27350   1.00
O2       0.27350    0.27350    0.33820   1.00
C1       0.25000    0.25000    0.14480   1.00
C1       0.25000    0.14480    0.25000   1.00
C1       0.35520    0.25000    0.25000   1.00
C1       0.14480    0.25000    0.25000   1.00
C1       0.25000    0.35520    0.25000   1.00
C1       0.25000    0.25000    0.35520   1.00
O1       0.75000    0.75000    0.25000   1.00
Zn1      0.78280    0.71720    0.21720   1.00
Zn1      0.71720    0.78280    0.21720   1.00
Zn1      0.71720    0.71720    0.28280   1.00
Zn1      0.78280    0.78280    0.28280   1.00
O2       0.77350    0.72650    0.16180   1.00
O2       0.77350    0.66180    0.22650   1.00
O2       0.83820    0.72650    0.22650   1.00
O2       0.72650    0.77350    0.16180   1.00
O2       0.66180    0.77350    0.22650   1.00
O2       0.72650    0.83820    0.22650   1.00
O2       0.72650    0.66180    0.27350   1.00
O2       0.66180    0.72650    0.27350   1.00
O2       0.72650    0.72650    0.33820   1.00
O2       0.83820    0.77350    0.27350   1.00
O2       0.77350    0.83820    0.27350   1.00
O2       0.77350    0.77350    0.33820   1.00
C1       0.75000    0.75000    0.14480   1.00
C1       0.75000    0.64480    0.25000   1.00
C1       0.85520    0.75000    0.25000   1.00
C1       0.64480    0.75000    0.25000   1.00
C1       0.75000    0.85520    0.25000   1.00
C1       0.75000    0.75000    0.35520   1.00
O1       0.75000    0.25000    0.75000   1.00
Zn1      0.78280    0.21720    0.71720   1.00
Zn1      0.71720    0.28280    0.71720   1.00
Zn1      0.71720    0.21720    0.78280   1.00
Zn1      0.78280    0.28280    0.78280   1.00
O2       0.77350    0.22650    0.66180   1.00
O2       0.77350    0.16180    0.72650   1.00
O2       0.83820    0.22650    0.72650   1.00
O2       0.72650    0.27350    0.66180   1.00
O2       0.66180    0.27350    0.72650   1.00
O2       0.72650    0.33820    0.72650   1.00
O2       0.72650    0.16180    0.77350   1.00
O2       0.66180    0.22650    0.77350   1.00
O2       0.72650    0.22650    0.83820   1.00
O2       0.83820    0.27350    0.77350   1.00
O2       0.77350    0.33820    0.77350   1.00
O2       0.77350    0.27350    0.83820   1.00
C1       0.75000    0.25000    0.64480   1.00
C1       0.75000    0.14480    0.75000   1.00
C1       0.85520    0.25000    0.75000   1.00
C1       0.64480    0.25000    0.75000   1.00
C1       0.75000    0.35520    0.75000   1.00
C1       0.75000    0.25000    0.85520   1.00
O1       0.25000    0.75000    0.75000   1.00
Zn1      0.28280    0.71720    0.71720   1.00
Zn1      0.21720    0.78280    0.71720   1.00
Zn1      0.21720    0.71720    0.78280   1.00
Zn1      0.28280    0.78280    0.78280   1.00
O2       0.27350    0.72650    0.66180   1.00
O2       0.27350    0.66180    0.72650   1.00
O2       0.33820    0.72650    0.72650   1.00
O2       0.22650    0.77350    0.66180   1.00
O2       0.16180    0.77350    0.72650   1.00
O2       0.22650    0.83820    0.72650   1.00
O2       0.22650    0.66180    0.77350   1.00
O2       0.16180    0.72650    0.77350   1.00
O2       0.22650    0.72650    0.83820   1.00
O2       0.33820    0.77350    0.77350   1.00
O2       0.27350    0.83820    0.77350   1.00
O2       0.27350    0.77350    0.83820   1.00
C1       0.25000    0.75000    0.64480   1.00
C1       0.25000    0.64480    0.75000   1.00
C1       0.35520    0.75000    0.75000   1.00
C1       0.14480    0.75000    0.75000   1.00
C1       0.25000    0.85520    0.75000   1.00
C1       0.25000    0.75000    0.85520   1.00
O1       1.00000    1.00000    1.00000   1.00
Zn1      0.96720    1.03280    1.03280   1.00
Zn1      1.03280    0.96720    1.03280   1.00
Zn1      1.03280    1.03280    0.96720   1.00
Zn1      0.96720    0.96720    0.96720   1.00
O2       0.97650    1.02350    1.08820   1.00
O2       0.97650    1.08820    1.02350   1.00
O2       0.91180    1.02350    1.02350   1.00
O2       1.02350    0.97650    1.08820   1.00
O2       1.08820    0.97650    1.02350   1.00
O2       1.02350    0.91180    1.02350   1.00
O2       1.02350    1.08820    0.97650   1.00
O2       1.08820    1.02350    0.97650   1.00
O2       1.02350    1.02350    0.91180   1.00
O2       0.91180    0.97650    0.97650   1.00
O2       0.97650    0.91180    0.97650   1.00
O2       0.97650    0.97650    0.91180   1.00
C1       1.00000    1.00000    1.10520   1.00
C1       1.00000    1.10520    1.00000   1.00
C1       0.89480    1.00000    1.00000   1.00
C1       1.10520    1.00000    1.00000   1.00
C1       1.00000    0.89480    1.00000   1.00
C1       1.00000    1.00000    0.89480   1.00
O1       0.50000    0.50000    1.00000   1.00
Zn1      0.46720    0.53280    1.03280   1.00
Zn1      0.53280    0.46720    1.03280   1.00
Zn1      0.53280    0.53280    0.96720   1.00
Zn1      0.46720    0.46720    0.96720   1.00
O2       0.47650    0.52350    1.08820   1.00
O2       0.47650    0.58820    1.02350   1.00
O2       0.41180    0.52350    1.02350   1.00
O2       0.52350    0.47650    1.08820   1.00
O2       0.58820    0.47650    1.02350   1.00
O2       0.52350    0.41180    1.02350   1.00
O2       0.52350    0.58820    0.97650   1.00
O2       0.58820    0.52350    0.97650   1.00
O2       0.52350    0.52350    0.91180   1.00
O2       0.41180    0.47650    0.97650   1.00
O2       0.47650    0.41180    0.97650   1.00
O2       0.47650    0.47650    0.91180   1.00
C1       0.50000    0.50000    1.10520   1.00
C1       0.50000    0.60520    1.00000   1.00
C1       0.39480    0.50000    1.00000   1.00
C1       0.60520    0.50000    1.00000   1.00
C1       0.50000    0.39480    1.00000   1.00
C1       0.50000    0.50000    0.89480   1.00
O1       0.50000    1.00000    0.50000   1.00
Zn1      0.46720    1.03280    0.53280   1.00
Zn1      0.53280    0.96720    0.53280   1.00
Zn1      0.53280    1.03280    0.46720   1.00
Zn1      0.46720    0.96720    0.46720   1.00
O2       0.47650    1.02350    0.58820   1.00
O2       0.47650    1.08820    0.52350   1.00
O2       0.41180    1.02350    0.52350   1.00
O2       0.52350    0.97650    0.58820   1.00
O2       0.58820    0.97650    0.52350   1.00
O2       0.52350    0.91180    0.52350   1.00
O2       0.52350    1.08820    0.47650   1.00
O2       0.58820    1.02350    0.47650   1.00
O2       0.52350    1.02350    0.41180   1.00
O2       0.41180    0.97650    0.47650   1.00
O2       0.47650    0.91180    0.47650   1.00
O2       0.47650    0.97650    0.41180   1.00
C1       0.50000    1.00000    0.60520   1.00
C1       0.50000    1.10520    0.50000   1.00
C1       0.39480    1.00000    0.50000   1.00
C1       0.60520    1.00000    0.50000   1.00
C1       0.50000    0.89480    0.50000   1.00
C1       0.50000    1.00000    0.39480   1.00
O1       1.00000    0.50000    0.50000   1.00
Zn1      0.96720    0.53280    0.53280   1.00
Zn1      1.03280    0.46720    0.53280   1.00
Zn1      1.03280    0.53280    0.46720   1.00
Zn1      0.96720    0.46720    0.46720   1.00
O2       0.97650    0.52350    0.58820   1.00
O2       0.97650    0.58820    0.52350   1.00
O2       0.91180    0.52350    0.52350   1.00
O2       1.02350    0.47650    0.58820   1.00
O2       1.08820    0.47650    0.52350   1.00
O2       1.02350    0.41180    0.52350   1.00
O2       1.02350    0.58820    0.47650   1.00
O2       1.08820    0.52350    0.47650   1.00
O2       1.02350    0.52350    0.41180   1.00
O2       0.91180    0.47650    0.47650   1.00
O2       0.97650    0.41180    0.47650   1.00
O2       0.97650    0.47650    0.41180   1.00
C1       1.00000    0.50000    0.60520   1.00
C1       1.00000    0.60520    0.50000   1.00
C1       0.89480    0.50000    0.50000   1.00
C1       1.10520    0.50000    0.50000   1.00
C1       1.00000    0.39480    0.50000   1.00
C1       1.00000    0.50000    0.39480   1.00
O1       0.50000    0.50000    0.50000   1.00
Zn1      0.53280    0.46720    0.46720   1.00
Zn1      0.46720    0.53280    0.46720   1.00
Zn1      0.46720    0.46720    0.53280   1.00
Zn1      0.53280    0.53280    0.53280   1.00
O2       0.52350    0.47650    0.41180   1.00
O2       0.52350    0.41180    0.47650   1.00
O2       0.58820    0.47650    0.47650   1.00
O2       0.47650    0.52350    0.41180   1.00
O2       0.41180    0.52350    0.47650   1.00
O2       0.47650    0.58820    0.47650   1.00
O2       0.47650    0.41180    0.52350   1.00
O2       0.41180    0.47650    0.52350   1.00
O2       0.47650    0.47650    0.58820   1.00
O2       0.58820    0.52350    0.52350   1.00
O2       0.52350    0.58820    0.52350   1.00
O2       0.52350    0.52350    0.58820   1.00
C1       0.50000    0.50000    0.39480   1.00
C1       0.50000    0.39480    0.50000   1.00
C1       0.60520    0.50000    0.50000   1.00
C1       0.39480    0.50000    0.50000   1.00
C1       0.50000    0.60520    0.50000   1.00
C1       0.50000    0.50000    0.60520   1.00
O1       1.00000    1.00000    0.50000   1.00
Zn1      1.03280    0.96720    0.46720   1.00
Zn1      0.96720    1.03280    0.46720   1.00
Zn1      0.96720    0.96720    0.53280   1.00
Zn1      1.03280    1.03280    0.53280   1.00
O2       1.02350    0.97650    0.41180   1.00
O2       1.02350    0.91180    0.47650   1.00
O2       1.08820    0.97650    0.47650   1.00
O2       0.97650    1.02350    0.41180   1.00
O2       0.91180    1.02350    0.47650   1.00
O2       0.97650    1.08820    0.47650   1.00
O2       0.97650    0.91180    0.52350   1.00
O2       0.91180    0.97650    0.52350   1.00
O2       0.97650    0.97650    0.58820   1.00
O2       1.08820    1.02350    0.52350   1.00
O2       1.02350    1.08820    0.52350   1.00
O2       1.02350    1.02350    0.58820   1.00
C1       1.00000    1.00000    0.39480   1.00
C1       1.00000    0.89480    0.50000   1.00
C1       1.10520    1.00000    0.50000   1.00
C1       0.89480    1.00000    0.50000   1.00
C1       1.00000    1.10520    0.50000   1.00
C1       1.00000    1.00000    0.60520   1.00
O1       1.00000    0.50000    1.00000   1.00
Zn1      1.03280    0.46720    0.96720   1.00
Zn1      0.96720    0.53280    0.96720   1.00
Zn1      0.96720    0.46720    1.03280   1.00
Zn1      1.03280    0.53280    1.03280   1.00
O2       1.02350    0.47650    0.91180   1.00
O2       1.02350    0.41180    0.97650   1.00
O2       1.08820    0.47650    0.97650   1.00
O2       0.97650    0.52350    0.91180   1.00
O2       0.91180    0.52350    0.97650   1.00
O2       0.97650    0.58820    0.97650   1.00
O2       0.97650    0.41180    1.02350   1.00
O2       0.91180    0.47650    1.02350   1.00
O2       0.97650    0.47650    1.08820   1.00
O2       1.08820    0.52350    1.02350   1.00
O2       1.02350    0.58820    1.02350   1.00
O2       1.02350    0.52350    1.08820   1.00
C1       1.00000    0.50000    0.89480   1.00
C1       1.00000    0.39480    1.00000   1.00
C1       1.10520    0.50000    1.00000   1.00
C1       0.89480    0.50000    1.00000   1.00
C1       1.00000    0.60520    1.00000   1.00
C1       1.00000    0.50000    1.10520   1.00
O1       0.50000    1.00000    1.00000   1.00
Zn1      0.53280    0.96720    0.96720   1.00
Zn1      0.46720    1.03280    0.96720   1.00
Zn1      0.46720    0.96720    1.03280   1.00
Zn1      0.53280    1.03280    1.03280   1.00
O2       0.52350    0.97650    0.91180   1.00
O2       0.52350    0.91180    0.97650   1.00
O2       0.58820    0.97650    0.97650   1.00
O2       0.47650    1.02350    0.91180   1.00
O2       0.41180    1.02350    0.97650   1.00
O2       0.47650    1.08820    0.97650   1.00
O2       0.47650    0.91180    1.02350   1.00
O2       0.41180    0.97650    1.02350   1.00
O2       0.47650    0.97650    1.08820   1.00
O2       0.58820    1.02350    1.02350   1.00
O2       0.52350    1.08820    1.02350   1.00
O2       0.52350    1.02350    1.08820   1.00
C1       0.50000    1.00000    0.89480   1.00
C1       0.50000    0.89480    1.00000   1.00
C1       0.60520    1.00000    1.00000   1.00
C1       0.39480    1.00000    1.00000   1.00
C1       0.50000    1.10520    1.00000   1.00
C1       0.50000    1.00000    1.10520   1.00
C4       0.74719    0.75116    1.02084   1.00
C4       0.74785    0.75145    0.97912   1.00
C3       0.72724    0.77943    1.04364   1.00
C3       0.73169    0.78194    0.95616   1.00
C3       0.76802    0.72141    1.04123   1.00
C3       0.76549    0.71962    0.95886   1.00
C2       0.74885    0.74966    1.10512   1.00
C2       0.75115    0.75034    0.89488   1.00
C3       0.72822    0.77886    1.08462   1.00
C3       0.73296    0.78124    0.91519   1.00
C3       0.76804    0.72091    1.08258   1.00
C3       0.76794    0.72029    0.91762   1.00
H1       0.71131    0.80119    1.03115   1.00
H1       0.71874    0.80566    0.96852   1.00
C5       0.78856    0.69225    1.02020   1.00
C5       0.78089    0.68745    0.97980   1.00
H1       0.71348    0.80023    1.09955   1.00
H1       0.72050    0.80392    0.90010   1.00
H1       0.78221    0.69877    1.09680   1.00
H1       0.78284    0.69853    0.90368   1.00
O3       0.81377    0.66766    1.03961   1.00
O3       0.79094    0.65321    0.96099   1.00
Si1      0.86006    0.67862    1.04247   1.00
Si1      0.75712    0.62071    0.95279   1.00
C6       0.87343    0.64131    1.07538   1.00
C6       0.88064    0.67075    0.99598   1.00
C6       0.86875    0.72528    1.06253   1.00
C6       0.70874    0.63169    0.96693   1.00
C6       0.75905    0.61448    0.90198   1.00
C6       0.77252    0.57686    0.97477   1.00
C6       0.84638    0.63630    1.11194   1.00
H2       0.86895    0.61504    1.05791   1.00
C6       0.91621    0.63823    1.09147   1.00
H2       0.86081    0.64915    0.98358   1.00
C6       0.88124    0.70547    0.96634   1.00
C6       0.92226    0.65212    0.99336   1.00
H2       0.84996    0.72510    1.08831   1.00
C6       0.91099    0.73401    1.07772   1.00
C6       0.85752    0.76270    1.03849   1.00
C6       0.70097    0.64196    1.01071   1.00
C6       0.68421    0.66134    0.94225   1.00
H2       0.69386    0.60394    0.96212   1.00
H2       0.74747    0.64183    0.89051   1.00
C6       0.80078    0.61041    0.88378   1.00
C6       0.73366    0.58114    0.88393   1.00
H2       0.79300    0.56446    0.95375   1.00
C6       0.79627    0.58089    1.01336   1.00
C6       0.74119    0.54448    0.98244   1.00
H2       0.81597    0.63186    1.10346   1.00
H2       0.84770    0.66191    1.13090   1.00
H2       0.85486    0.61082    1.12917   1.00
H2       0.92396    0.60762    1.09608   1.00
H2       0.93776    0.65063    1.07178   1.00
H2       0.91961    0.65275    1.11964   1.00
H2       0.88677    0.69494    0.93672   1.00
H2       0.85345    0.72079    0.96532   1.00
H2       0.90418    0.72637    0.97352   1.00
H2       0.92349    0.62420    1.00862   1.00
H2       0.93037    0.64605    0.96308   1.00
H2       0.94437    0.67161    1.00550   1.00
H2       0.93274    0.72830    1.05514   1.00
H2       0.91435    0.76436    1.08708   1.00
H2       0.91787    0.71663    1.10332   1.00
H2       0.88099    0.77192    1.01902   1.00
H2       0.83168    0.75899    1.02068   1.00
H2       0.85165    0.78705    1.05828   1.00
H2       0.70703    0.67255    1.01688   1.00
H2       0.67035    0.63687    1.01809   1.00
H2       0.71835    0.62420    1.03048   1.00
H2       0.65359    0.66083    0.95125   1.00
H2       0.69435    0.69122    0.94574   1.00
H2       0.68449    0.65427    0.91122   1.00
H2       0.79942    0.61339    0.85202   1.00
H2       0.82037    0.63324    0.89435   1.00
H2       0.81396    0.58218    0.89035   1.00
H2       0.70354    0.58240    0.89416   1.00
H2       0.73279    0.58379    0.85212   1.00
H2       0.74556    0.55239    0.89085   1.00
H2       0.77927    0.59447    1.03656   1.00
H2       0.80663    0.55261    1.02381   1.00
H2       0.82189    0.59883    1.00834   1.00
H2       0.75513    0.51690    0.99044   1.00
H2       0.72158    0.55264    1.00622   1.00
H2       0.72362    0.53870    0.95657   1.00
C4       0.75116    1.02084    0.74719   1.00
C4       0.75145    0.97912    0.74785   1.00
C3       0.77943    1.04364    0.72724   1.00
C3       0.78194    0.95616    0.73169   1.00
C3       0.72141    1.04123    0.76802   1.00
C3       0.71962    0.95886    0.76549   1.00
C2       0.74966    1.10512    0.74885   1.00
C2       0.75034    0.89488    0.75115   1.00
C3       0.77886    1.08462    0.72822   1.00
C3       0.78124    0.91519    0.73296   1.00
C3       0.72091    1.08258    0.76804   1.00
C3       0.72029    0.91762    0.76794   1.00
H1       0.80119    1.03115    0.71131   1.00
H1       0.80566    0.96852    0.71874   1.00
C5       0.69225    1.02020    0.78856   1.00
C5       0.68745    0.97980    0.78089   1.00
H1       0.80023    1.09955    0.71348   1.00
H1       0.80392    0.90010    0.72050   1.00
H1       0.69877    1.09680    0.78221   1.00
H1       0.69853    0.90368    0.78284   1.00
O3       0.66766    1.03961    0.81377   1.00
O3       0.65321    0.96099    0.79094   1.00
Si1      0.67862    1.04247    0.86006   1.00
Si1      0.62071    0.95279    0.75712   1.00
C6       0.64131    1.07538    0.87343   1.00
C6       0.67075    0.99598    0.88064   1.00
C6       0.72528    1.06253    0.86875   1.00
C6       0.63169    0.96693    0.70874   1.00
C6       0.61448    0.90198    0.75905   1.00
C6       0.57686    0.97477    0.77252   1.00
C6       0.63630    1.11194    0.84638   1.00
H2       0.61504    1.05791    0.86895   1.00
C6       0.63823    1.09147    0.91621   1.00
H2       0.64915    0.98358    0.86081   1.00
C6       0.70547    0.96634    0.88124   1.00
C6       0.65212    0.99336    0.92226   1.00
H2       0.72510    1.08831    0.84996   1.00
C6       0.73401    1.07772    0.91099   1.00
C6       0.76270    1.03849    0.85752   1.00
C6       0.64196    1.01071    0.70097   1.00
C6       0.66134    0.94225    0.68421   1.00
H2       0.60394    0.96212    0.69386   1.00
H2       0.64183    0.89051    0.74747   1.00
C6       0.61041    0.88378    0.80078   1.00
C6       0.58114    0.88393    0.73366   1.00
H2       0.56446    0.95375    0.79300   1.00
C6       0.58089    1.01336    0.79627   1.00
C6       0.54448    0.98244    0.74119   1.00
H2       0.63186    1.10346    0.81597   1.00
H2       0.66191    1.13090    0.84770   1.00
H2       0.61082    1.12917    0.85486   1.00
H2       0.60762    1.09608    0.92396   1.00
H2       0.65063    1.07178    0.93776   1.00
H2       0.65275    1.11964    0.91961   1.00
H2       0.69494    0.93672    0.88677   1.00
H2       0.72079    0.96532    0.85345   1.00
H2       0.72637    0.97352    0.90418   1.00
H2       0.62420    1.00862    0.92349   1.00
H2       0.64605    0.96308    0.93037   1.00
H2       0.67161    1.00550    0.94437   1.00
H2       0.72830    1.05514    0.93274   1.00
H2       0.76436    1.08708    0.91435   1.00
H2       0.71663    1.10332    0.91787   1.00
H2       0.77192    1.01902    0.88099   1.00
H2       0.75899    1.02068    0.83168   1.00
H2       0.78705    1.05828    0.85165   1.00
H2       0.67255    1.01688    0.70703   1.00
H2       0.63687    1.01809    0.67035   1.00
H2       0.62420    1.03048    0.71835   1.00
H2       0.66083    0.95125    0.65359   1.00
H2       0.69122    0.94574    0.69435   1.00
H2       0.65427    0.91122    0.68449   1.00
H2       0.61339    0.85202    0.79942   1.00
H2       0.63324    0.89435    0.82037   1.00
H2       0.58218    0.89035    0.81396   1.00
H2       0.58240    0.89416    0.70354   1.00
H2       0.58379    0.85212    0.73279   1.00
H2       0.55239    0.89085    0.74556   1.00
H2       0.59447    1.03656    0.77927   1.00
H2       0.55261    1.02381    0.80663   1.00
H2       0.59883    1.00834    0.82189   1.00
H2       0.51690    0.99044    0.75513   1.00
H2       0.55264    1.00622    0.72158   1.00
H2       0.53870    0.95657    0.72362   1.00
C4       0.47916    0.74719    0.74884   1.00
C4       0.52088    0.74785    0.74855   1.00
C3       0.45636    0.72724    0.72057   1.00
C3       0.54384    0.73169    0.71806   1.00
C3       0.45877    0.76802    0.77859   1.00
C3       0.54114    0.76549    0.78038   1.00
C2       0.39488    0.74885    0.75034   1.00
C2       0.60512    0.75115    0.74966   1.00
C3       0.41538    0.72822    0.72114   1.00
C3       0.58481    0.73296    0.71876   1.00
C3       0.41742    0.76804    0.77909   1.00
C3       0.58238    0.76794    0.77971   1.00
H1       0.46885    0.71131    0.69881   1.00
H1       0.53148    0.71874    0.69434   1.00
C5       0.47980    0.78856    0.80775   1.00
C5       0.52020    0.78089    0.81255   1.00
H1       0.40045    0.71348    0.69977   1.00
H1       0.59990    0.72050    0.69608   1.00
H1       0.40320    0.78221    0.80123   1.00
H1       0.59632    0.78284    0.80147   1.00
O3       0.46039    0.81377    0.83234   1.00
O3       0.53901    0.79094    0.84679   1.00
Si1      0.45753    0.86006    0.82138   1.00
Si1      0.54721    0.75712    0.87929   1.00
C6       0.42462    0.87343    0.85869   1.00
C6       0.50402    0.88064    0.82925   1.00
C6       0.43747    0.86875    0.77472   1.00
C6       0.53307    0.70874    0.86831   1.00
C6       0.59802    0.75905    0.88552   1.00
C6       0.52523    0.77252    0.92314   1.00
C6       0.38806    0.84638    0.86370   1.00
H2       0.44209    0.86895    0.88496   1.00
C6       0.40853    0.91621    0.86177   1.00
H2       0.51642    0.86081    0.85085   1.00
C6       0.53366    0.88124    0.79453   1.00
C6       0.50664    0.92226    0.84788   1.00
H2       0.41169    0.84996    0.77490   1.00
C6       0.42228    0.91099    0.76599   1.00
C6       0.46151    0.85752    0.73730   1.00
C6       0.48929    0.70097    0.85804   1.00
C6       0.55775    0.68421    0.83866   1.00
H2       0.53788    0.69386    0.89606   1.00
H2       0.60949    0.74747    0.85817   1.00
C6       0.61622    0.80078    0.88959   1.00
C6       0.61607    0.73366    0.91886   1.00
H2       0.54625    0.79300    0.93554   1.00
C6       0.48664    0.79627    0.91911   1.00
C6       0.51756    0.74119    0.95552   1.00
H2       0.39654    0.81597    0.86814   1.00
H2       0.36910    0.84770    0.83809   1.00
H2       0.37083    0.85486    0.88918   1.00
H2       0.40392    0.92396    0.89238   1.00
H2       0.42822    0.93776    0.84937   1.00
H2       0.38036    0.91961    0.84725   1.00
H2       0.56328    0.88677    0.80506   1.00
H2       0.53468    0.85345    0.77921   1.00
H2       0.52648    0.90418    0.77363   1.00
H2       0.49138    0.92349    0.87580   1.00
H2       0.53692    0.93037    0.85395   1.00
H2       0.49450    0.94437    0.82839   1.00
H2       0.44486    0.93274    0.77170   1.00
H2       0.41292    0.91435    0.73564   1.00
H2       0.39668    0.91787    0.78337   1.00
H2       0.48098    0.88099    0.72808   1.00
H2       0.47932    0.83168    0.74101   1.00
H2       0.44172    0.85165    0.71295   1.00
H2       0.48312    0.70703    0.82745   1.00
H2       0.48191    0.67035    0.86313   1.00
H2       0.46952    0.71835    0.87580   1.00
H2       0.54875    0.65359    0.83917   1.00
H2       0.55426    0.69435    0.80878   1.00
H2       0.58878    0.68449    0.84573   1.00
H2       0.64798    0.79942    0.88661   1.00
H2       0.60565    0.82037    0.86676   1.00
H2       0.60965    0.81396    0.91782   1.00
H2       0.60584    0.70354    0.91760   1.00
H2       0.64788    0.73279    0.91621   1.00
H2       0.60915    0.74556    0.94761   1.00
H2       0.46344    0.77927    0.90553   1.00
H2       0.47619    0.80663    0.94739   1.00
H2       0.49166    0.82189    0.90117   1.00
H2       0.50956    0.75513    0.98310   1.00
H2       0.49378    0.72158    0.94736   1.00
H2       0.54343    0.72362    0.96130   1.00
C4       1.02084    0.74719    0.75116   1.00
C4       0.97912    0.74785    0.75145   1.00
C3       1.04364    0.72724    0.77943   1.00
C3       0.95616    0.73169    0.78194   1.00
C3       1.04123    0.76802    0.72141   1.00
C3       0.95886    0.76549    0.71962   1.00
C2       1.10512    0.74885    0.74966   1.00
C2       0.89488    0.75115    0.75034   1.00
C3       1.08462    0.72822    0.77886   1.00
C3       0.91519    0.73296    0.78124   1.00
C3       1.08258    0.76804    0.72091   1.00
C3       0.91762    0.76794    0.72029   1.00
H1       1.03115    0.71131    0.80119   1.00
H1       0.96852    0.71874    0.80566   1.00
C5       1.02020    0.78856    0.69225   1.00
C5       0.97980    0.78089    0.68745   1.00
H1       1.09955    0.71348    0.80023   1.00
H1       0.90010    0.72050    0.80392   1.00
H1       1.09680    0.78221    0.69877   1.00
H1       0.90368    0.78284    0.69853   1.00
O3       1.03961    0.81377    0.66766   1.00
O3       0.96099    0.79094    0.65321   1.00
Si1      1.04247    0.86006    0.67862   1.00
Si1      0.95279    0.75712    0.62071   1.00
C6       1.07538    0.87343    0.64131   1.00
C6       0.99598    0.88064    0.67075   1.00
C6       1.06253    0.86875    0.72528   1.00
C6       0.96693    0.70874    0.63169   1.00
C6       0.90198    0.75905    0.61448   1.00
C6       0.97477    0.77252    0.57686   1.00
C6       1.11194    0.84638    0.63630   1.00
H2       1.05791    0.86895    0.61504   1.00
C6       1.09147    0.91621    0.63823   1.00
H2       0.98358    0.86081    0.64915   1.00
C6       0.96634    0.88124    0.70547   1.00
C6       0.99336    0.92226    0.65212   1.00
H2       1.08831    0.84996    0.72510   1.00
C6       1.07772    0.91099    0.73401   1.00
C6       1.03849    0.85752    0.76270   1.00
C6       1.01071    0.70097    0.64196   1.00
C6       0.94225    0.68421    0.66134   1.00
H2       0.96212    0.69386    0.60394   1.00
H2       0.89051    0.74747    0.64183   1.00
C6       0.88378    0.80078    0.61041   1.00
C6       0.88393    0.73366    0.58114   1.00
H2       0.95375    0.79300    0.56446   1.00
C6       1.01336    0.79627    0.58089   1.00
C6       0.98244    0.74119    0.54448   1.00
H2       1.10346    0.81597    0.63186   1.00
H2       1.13090    0.84770    0.66191   1.00
H2       1.12917    0.85486    0.61082   1.00
H2       1.09608    0.92396    0.60762   1.00
H2       1.07178    0.93776    0.65063   1.00
H2       1.11964    0.91961    0.65275   1.00
H2       0.93672    0.88677    0.69494   1.00
H2       0.96532    0.85345    0.72079   1.00
H2       0.97352    0.90418    0.72637   1.00
H2       1.00862    0.92349    0.62420   1.00
H2       0.96308    0.93037    0.64605   1.00
H2       1.00550    0.94437    0.67161   1.00
H2       1.05514    0.93274    0.72830   1.00
H2       1.08708    0.91435    0.76436   1.00
H2       1.10332    0.91787    0.71663   1.00
H2       1.01902    0.88099    0.77192   1.00
H2       1.02068    0.83168    0.75899   1.00
H2       1.05828    0.85165    0.78705   1.00
H2       1.01688    0.70703    0.67255   1.00
H2       1.01809    0.67035    0.63687   1.00
H2       1.03048    0.71835    0.62420   1.00
H2       0.95125    0.65359    0.66083   1.00
H2       0.94574    0.69435    0.69122   1.00
H2       0.91122    0.68449    0.65427   1.00
H2       0.85202    0.79942    0.61339   1.00
H2       0.89435    0.82037    0.63324   1.00
H2       0.89035    0.81396    0.58218   1.00
H2       0.89416    0.70354    0.58240   1.00
H2       0.85212    0.73279    0.58379   1.00
H2       0.89085    0.74556    0.55239   1.00
H2       1.03656    0.77927    0.59447   1.00
H2       1.02381    0.80663    0.55261   1.00
H2       1.00834    0.82189    0.59883   1.00
H2       0.99044    0.75513    0.51690   1.00
H2       1.00622    0.72158    0.55264   1.00
H2       0.95657    0.72362    0.53870   1.00
C4       0.74884    0.47916    0.74719   1.00
C4       0.74855    0.52088    0.74785   1.00
C3       0.72057    0.45636    0.72724   1.00
C3       0.71806    0.54384    0.73169   1.00
C3       0.77859    0.45877    0.76802   1.00
C3       0.78038    0.54114    0.76549   1.00
C2       0.75034    0.39488    0.74885   1.00
C2       0.74966    0.60512    0.75115   1.00
C3       0.72114    0.41538    0.72822   1.00
C3       0.71876    0.58481    0.73296   1.00
C3       0.77909    0.41742    0.76804   1.00
C3       0.77971    0.58238    0.76794   1.00
H1       0.69881    0.46885    0.71131   1.00
H1       0.69434    0.53148    0.71874   1.00
C5       0.80775    0.47980    0.78856   1.00
C5       0.81255    0.52020    0.78089   1.00
H1       0.69977    0.40045    0.71348   1.00
H1       0.69608    0.59990    0.72050   1.00
H1       0.80123    0.40320    0.78221   1.00
H1       0.80147    0.59632    0.78284   1.00
O3       0.83234    0.46039    0.81377   1.00
O3       0.84679    0.53901    0.79094   1.00
Si1      0.82138    0.45753    0.86006   1.00
Si1      0.87929    0.54721    0.75712   1.00
C6       0.85869    0.42462    0.87343   1.00
C6       0.82925    0.50402    0.88064   1.00
C6       0.77472    0.43747    0.86875   1.00
C6       0.86831    0.53307    0.70874   1.00
C6       0.88552    0.59802    0.75905   1.00
C6       0.92314    0.52523    0.77252   1.00
C6       0.86370    0.38806    0.84638   1.00
H2       0.88496    0.44209    0.86895   1.00
C6       0.86177    0.40853    0.91621   1.00
H2       0.85085    0.51642    0.86081   1.00
C6       0.79453    0.53366    0.88124   1.00
C6       0.84788    0.50664    0.92226   1.00
H2       0.77490    0.41169    0.84996   1.00
C6       0.76599    0.42228    0.91099   1.00
C6       0.73730    0.46151    0.85752   1.00
C6       0.85804    0.48929    0.70097   1.00
C6       0.83866    0.55775    0.68421   1.00
H2       0.89606    0.53788    0.69386   1.00
H2       0.85817    0.60949    0.74747   1.00
C6       0.88959    0.61622    0.80078   1.00
C6       0.91886    0.61607    0.73366   1.00
H2       0.93554    0.54625    0.79300   1.00
C6       0.91911    0.48664    0.79627   1.00
C6       0.95552    0.51756    0.74119   1.00
H2       0.86814    0.39654    0.81597   1.00
H2       0.83809    0.36910    0.84770   1.00
H2       0.88918    0.37083    0.85486   1.00
H2       0.89238    0.40392    0.92396   1.00
H2       0.84937    0.42822    0.93776   1.00
H2       0.84725    0.38036    0.91961   1.00
H2       0.80506    0.56328    0.88677   1.00
H2       0.77921    0.53468    0.85345   1.00
H2       0.77363    0.52648    0.90418   1.00
H2       0.87580    0.49138    0.92349   1.00
H2       0.85395    0.53692    0.93037   1.00
H2       0.82839    0.49450    0.94437   1.00
H2       0.77170    0.44486    0.93274   1.00
H2       0.73564    0.41292    0.91435   1.00
H2       0.78337    0.39668    0.91787   1.00
H2       0.72808    0.48098    0.88099   1.00
H2       0.74101    0.47932    0.83168   1.00
H2       0.71295    0.44172    0.85165   1.00
H2       0.82745    0.48312    0.70703   1.00
H2       0.86313    0.48191    0.67035   1.00
H2       0.87580    0.46952    0.71835   1.00
H2       0.83917    0.54875    0.65359   1.00
H2       0.80878    0.55426    0.69435   1.00
H2       0.84573    0.58878    0.68449   1.00
H2       0.88661    0.64798    0.79942   1.00
H2       0.86676    0.60565    0.82037   1.00
H2       0.91782    0.60965    0.81396   1.00
H2       0.91760    0.60584    0.70354   1.00
H2       0.91621    0.64788    0.73279   1.00
H2       0.94761    0.60915    0.74556   1.00
H2       0.90553    0.46344    0.77927   1.00
H2       0.94739    0.47619    0.80663   1.00
H2       0.90117    0.49166    0.82189   1.00
H2       0.98310    0.50956    0.75513   1.00
H2       0.94736    0.49378    0.72158   1.00
H2       0.96130    0.54343    0.72362   1.00
C4       0.74719    0.74884    0.47916   1.00
C4       0.74785    0.74855    0.52088   1.00
C3       0.72724    0.72057    0.45636   1.00
C3       0.73169    0.71806    0.54384   1.00
C3       0.76802    0.77859    0.45877   1.00
C3       0.76549    0.78038    0.54114   1.00
C2       0.74885    0.75034    0.39488   1.00
C2       0.75115    0.74966    0.60512   1.00
C3       0.72822    0.72114    0.41538   1.00
C3       0.73296    0.71876    0.58481   1.00
C3       0.76804    0.77909    0.41742   1.00
C3       0.76794    0.77971    0.58238   1.00
H1       0.71131    0.69881    0.46885   1.00
H1       0.71874    0.69434    0.53148   1.00
C5       0.78856    0.80775    0.47980   1.00
C5       0.78089    0.81255    0.52020   1.00
H1       0.71348    0.69977    0.40045   1.00
H1       0.72050    0.69608    0.59990   1.00
H1       0.78221    0.80123    0.40320   1.00
H1       0.78284    0.80147    0.59632   1.00
O3       0.81377    0.83234    0.46039   1.00
O3       0.79094    0.84679    0.53901   1.00
Si1      0.86006    0.82138    0.45753   1.00
Si1      0.75712    0.87929    0.54721   1.00
C6       0.87343    0.85869    0.42462   1.00
C6       0.88064    0.82925    0.50402   1.00
C6       0.86875    0.77472    0.43747   1.00
C6       0.70874    0.86831    0.53307   1.00
C6       0.75905    0.88552    0.59802   1.00
C6       0.77252    0.92314    0.52523   1.00
C6       0.84638    0.86370    0.38806   1.00
H2       0.86895    0.88496    0.44209   1.00
C6       0.91621    0.86177    0.40853   1.00
H2       0.86081    0.85085    0.51642   1.00
C6       0.88124    0.79453    0.53366   1.00
C6       0.92226    0.84788    0.50664   1.00
H2       0.84996    0.77490    0.41169   1.00
C6       0.91099    0.76599    0.42228   1.00
C6       0.85752    0.73730    0.46151   1.00
C6       0.70097    0.85804    0.48929   1.00
C6       0.68421    0.83866    0.55775   1.00
H2       0.69386    0.89606    0.53788   1.00
H2       0.74747    0.85817    0.60949   1.00
C6       0.80078    0.88959    0.61622   1.00
C6       0.73366    0.91886    0.61607   1.00
H2       0.79300    0.93554    0.54625   1.00
C6       0.79627    0.91911    0.48664   1.00
C6       0.74119    0.95552    0.51756   1.00
H2       0.81597    0.86814    0.39654   1.00
H2       0.84770    0.83809    0.36910   1.00
H2       0.85486    0.88918    0.37083   1.00
H2       0.92396    0.89238    0.40392   1.00
H2       0.93776    0.84937    0.42822   1.00
H2       0.91961    0.84725    0.38036   1.00
H2       0.88677    0.80506    0.56328   1.00
H2       0.85345    0.77921    0.53468   1.00
H2       0.90418    0.77363    0.52648   1.00
H2       0.92349    0.87580    0.49138   1.00
H2       0.93037    0.85395    0.53692   1.00
H2       0.94437    0.82839    0.49450   1.00
H2       0.93274    0.77170    0.44486   1.00
H2       0.91435    0.73564    0.41292   1.00
H2       0.91787    0.78337    0.39668   1.00
H2       0.88099    0.72808    0.48098   1.00
H2       0.83168    0.74101    0.47932   1.00
H2       0.85165    0.71295    0.44172   1.00
H2       0.70703    0.82745    0.48312   1.00
H2       0.67035    0.86313    0.48191   1.00
H2       0.71835    0.87580    0.46952   1.00
H2       0.65359    0.83917    0.54875   1.00
H2       0.69435    0.80878    0.55426   1.00
H2       0.68449    0.84573    0.58878   1.00
H2       0.79942    0.88661    0.64798   1.00
H2       0.82037    0.86676    0.60565   1.00
H2       0.81396    0.91782    0.60965   1.00
H2       0.70354    0.91760    0.60584   1.00
H2       0.73279    0.91621    0.64788   1.00
H2       0.74556    0.94761    0.60915   1.00
H2       0.77927    0.90553    0.46344   1.00
H2       0.80663    0.94739    0.47619   1.00
H2       0.82189    0.90117    0.49166   1.00
H2       0.75513    0.98310    0.50956   1.00
H2       0.72158    0.94736    0.49378   1.00
H2       0.72362    0.96130    0.54343   1.00
C4       0.24719    0.25116    1.02084   1.00
C4       0.24785    0.25145    0.97912   1.00
C3       0.22724    0.27943    1.04364   1.00
C3       0.23169    0.28194    0.95616   1.00
C3       0.26802    0.22141    1.04123   1.00
C3       0.26549    0.21962    0.95886   1.00
C2       0.24885    0.24966    1.10512   1.00
C2       0.25115    0.25034    0.89488   1.00
C3       0.22822    0.27886    1.08462   1.00
C3       0.23296    0.28124    0.91519   1.00
C3       0.26804    0.22091    1.08258   1.00
C3       0.26794    0.22029    0.91762   1.00
H1       0.21131    0.30119    1.03115   1.00
H1       0.21874    0.30566    0.96852   1.00
C5       0.28856    0.19225    1.02020   1.00
C5       0.28089    0.18745    0.97980   1.00
H1       0.21348    0.30023    1.09955   1.00
H1       0.22050    0.30392    0.90010   1.00
H1       0.28221    0.19877    1.09680   1.00
H1       0.28284    0.19853    0.90368   1.00
O3       0.31377    0.16766    1.03961   1.00
O3       0.29094    0.15321    0.96099   1.00
Si1      0.36006    0.17862    1.04247   1.00
Si1      0.25712    0.12071    0.95279   1.00
C6       0.37343    0.14131    1.07538   1.00
C6       0.38064    0.17075    0.99598   1.00
C6       0.36875    0.22528    1.06253   1.00
C6       0.20874    0.13169    0.96693   1.00
C6       0.25905    0.11448    0.90198   1.00
C6       0.27252    0.07686    0.97477   1.00
C6       0.34638    0.13630    1.11194   1.00
H2       0.36895    0.11504    1.05791   1.00
C6       0.41621    0.13823    1.09147   1.00
H2       0.36081    0.14915    0.98358   1.00
C6       0.38124    0.20547    0.96634   1.00
C6       0.42226    0.15212    0.99336   1.00
H2       0.34996    0.22510    1.08831   1.00
C6       0.41099    0.23401    1.07772   1.00
C6       0.35752    0.26270    1.03849   1.00
C6       0.20097    0.14196    1.01071   1.00
C6       0.18421    0.16134    0.94225   1.00
H2       0.19386    0.10394    0.96212   1.00
H2       0.24747    0.14183    0.89051   1.00
C6       0.30078    0.11041    0.88378   1.00
C6       0.23366    0.08114    0.88393   1.00
H2       0.29300    0.06446    0.95375   1.00
C6       0.29627    0.08089    1.01336   1.00
C6       0.24119    0.04448    0.98244   1.00
H2       0.31597    0.13186    1.10346   1.00
H2       0.34770    0.16191    1.13090   1.00
H2       0.35486    0.11082    1.12917   1.00
H2       0.42396    0.10762    1.09608   1.00
H2       0.43776    0.15063    1.07178   1.00
H2       0.41961    0.15275    1.11964   1.00
H2       0.38677    0.19494    0.93672   1.00
H2       0.35345    0.22079    0.96532   1.00
H2       0.40418    0.22637    0.97352   1.00
H2       0.42349    0.12420    1.00862   1.00
H2       0.43037    0.14605    0.96308   1.00
H2       0.44437    0.17161    1.00550   1.00
H2       0.43274    0.22830    1.05514   1.00
H2       0.41435    0.26436    1.08708   1.00
H2       0.41787    0.21663    1.10332   1.00
H2       0.38099    0.27192    1.01902   1.00
H2       0.33168    0.25899    1.02068   1.00
H2       0.35165    0.28705    1.05828   1.00
H2       0.20703    0.17255    1.01688   1.00
H2       0.17035    0.13687    1.01809   1.00
H2       0.21835    0.12420    1.03048   1.00
H2       0.15359    0.16083    0.95125   1.00
H2       0.19435    0.19122    0.94574   1.00
H2       0.18449    0.15427    0.91122   1.00
H2       0.29942    0.11339    0.85202   1.00
H2       0.32037    0.13324    0.89435   1.00
H2       0.31396    0.08218    0.89035   1.00
H2       0.20354    0.08240    0.89416   1.00
H2       0.23279    0.08379    0.85212   1.00
H2       0.24556    0.05239    0.89085   1.00
H2       0.27927    0.09447    1.03656   1.00
H2       0.30663    0.05261    1.02381   1.00
H2       0.32189    0.09883    1.00834   1.00
H2       0.25513    0.01690    0.99044   1.00
H2       0.22158    0.05264    1.00622   1.00
H2       0.22362    0.03870    0.95657   1.00
C4       0.25116    0.52084    0.74719   1.00
C4       0.25145    0.47912    0.74785   1.00
C3       0.27943    0.54364    0.72724   1.00
C3       0.28194    0.45616    0.73169   1.00
C3       0.22141    0.54123    0.76802   1.00
C3       0.21962    0.45886    0.76549   1.00
C2       0.24966    0.60512    0.74885   1.00
C2       0.25034    0.39488    0.75115   1.00
C3       0.27886    0.58462    0.72822   1.00
C3       0.28124    0.41519    0.73296   1.00
C3       0.22091    0.58258    0.76804   1.00
C3       0.22029    0.41762    0.76794   1.00
H1       0.30119    0.53115    0.71131   1.00
H1       0.30566    0.46852    0.71874   1.00
C5       0.19225    0.52020    0.78856   1.00
C5       0.18745    0.47980    0.78089   1.00
H1       0.30023    0.59955    0.71348   1.00
H1       0.30392    0.40010    0.72050   1.00
H1       0.19877    0.59680    0.78221   1.00
H1       0.19853    0.40368    0.78284   1.00
O3       0.16766    0.53961    0.81377   1.00
O3       0.15321    0.46099    0.79094   1.00
Si1      0.17862    0.54247    0.86006   1.00
Si1      0.12071    0.45279    0.75712   1.00
C6       0.14131    0.57538    0.87343   1.00
C6       0.17075    0.49598    0.88064   1.00
C6       0.22528    0.56253    0.86875   1.00
C6       0.13169    0.46693    0.70874   1.00
C6       0.11448    0.40198    0.75905   1.00
C6       0.07686    0.47477    0.77252   1.00
C6       0.13630    0.61194    0.84638   1.00
H2       0.11504    0.55791    0.86895   1.00
C6       0.13823    0.59147    0.91621   1.00
H2       0.14915    0.48358    0.86081   1.00
C6       0.20547    0.46634    0.88124   1.00
C6       0.15212    0.49336    0.92226   1.00
H2       0.22510    0.58831    0.84996   1.00
C6       0.23401    0.57772    0.91099   1.00
C6       0.26270    0.53849    0.85752   1.00
C6       0.14196    0.51071    0.70097   1.00
C6       0.16134    0.44225    0.68421   1.00
H2       0.10394    0.46212    0.69386   1.00
H2       0.14183    0.39051    0.74747   1.00
C6       0.11041    0.38378    0.80078   1.00
C6       0.08114    0.38393    0.73366   1.00
H2       0.06446    0.45375    0.79300   1.00
C6       0.08089    0.51336    0.79627   1.00
C6       0.04448    0.48244    0.74119   1.00
H2       0.13186    0.60346    0.81597   1.00
H2       0.16191    0.63090    0.84770   1.00
H2       0.11082    0.62917    0.85486   1.00
H2       0.10762    0.59608    0.92396   1.00
H2       0.15063    0.57178    0.93776   1.00
H2       0.15275    0.61964    0.91961   1.00
H2       0.19494    0.43672    0.88677   1.00
H2       0.22079    0.46532    0.85345   1.00
H2       0.22637    0.47352    0.90418   1.00
H2       0.12420    0.50862    0.92349   1.00
H2       0.14605    0.46308    0.93037   1.00
H2       0.17161    0.50550    0.94437   1.00
H2       0.22830    0.55514    0.93274   1.00
H2       0.26436    0.58708    0.91435   1.00
H2       0.21663    0.60332    0.91787   1.00
H2       0.27192    0.51902    0.88099   1.00
H2       0.25899    0.52068    0.83168   1.00
H2       0.28705    0.55828    0.85165   1.00
H2       0.17255    0.51688    0.70703   1.00
H2       0.13687    0.51809    0.67035   1.00
H2       0.12420    0.53048    0.71835   1.00
H2       0.16083    0.45125    0.65359   1.00
H2       0.19122    0.44574    0.69435   1.00
H2       0.15427    0.41122    0.68449   1.00
H2       0.11339    0.35202    0.79942   1.00
H2       0.13324    0.39435    0.82037   1.00
H2       0.08218    0.39035    0.81396   1.00
H2       0.08240    0.39416    0.70354   1.00
H2       0.08379    0.35212    0.73279   1.00
H2       0.05239    0.39085    0.74556   1.00
H2       0.09447    0.53656    0.77927   1.00
H2       0.05261    0.52381    0.80663   1.00
H2       0.09883    0.50834    0.82189   1.00
H2       0.01690    0.49044    0.75513   1.00
H2       0.05264    0.50622    0.72158   1.00
H2       0.03870    0.45657    0.72362   1.00
C4       -0.02084   0.24719    0.74884   1.00
C4       0.02088    0.24785    0.74855   1.00
C3       -0.04364   0.22724    0.72057   1.00
C3       0.04384    0.23169    0.71806   1.00
C3       -0.04123   0.26802    0.77859   1.00
C3       0.04114    0.26549    0.78038   1.00
C2       -0.10512   0.24885    0.75034   1.00
C2       0.10512    0.25115    0.74966   1.00
C3       -0.08462   0.22822    0.72114   1.00
C3       0.08481    0.23296    0.71876   1.00
C3       -0.08258   0.26804    0.77909   1.00
C3       0.08238    0.26794    0.77971   1.00
H1       -0.03115   0.21131    0.69881   1.00
H1       0.03148    0.21874    0.69434   1.00
C5       -0.02020   0.28856    0.80775   1.00
C5       0.02020    0.28089    0.81255   1.00
H1       -0.09955   0.21348    0.69977   1.00
H1       0.09990    0.22050    0.69608   1.00
H1       -0.09680   0.28221    0.80123   1.00
H1       0.09632    0.28284    0.80147   1.00
O3       -0.03961   0.31377    0.83234   1.00
O3       0.03901    0.29094    0.84679   1.00
Si1      -0.04247   0.36006    0.82138   1.00
Si1      0.04721    0.25712    0.87929   1.00
C6       -0.07538   0.37343    0.85869   1.00
C6       0.00402    0.38064    0.82925   1.00
C6       -0.06253   0.36875    0.77472   1.00
C6       0.03307    0.20874    0.86831   1.00
C6       0.09802    0.25905    0.88552   1.00
C6       0.02523    0.27252    0.92314   1.00
C6       -0.11194   0.34638    0.86370   1.00
H2       -0.05791   0.36895    0.88496   1.00
C6       -0.09147   0.41621    0.86177   1.00
H2       0.01642    0.36081    0.85085   1.00
C6       0.03366    0.38124    0.79453   1.00
C6       0.00664    0.42226    0.84788   1.00
H2       -0.08831   0.34996    0.77490   1.00
C6       -0.07772   0.41099    0.76599   1.00
C6       -0.03849   0.35752    0.73730   1.00
C6       -0.01071   0.20097    0.85804   1.00
C6       0.05775    0.18421    0.83866   1.00
H2       0.03788    0.19386    0.89606   1.00
H2       0.10949    0.24747    0.85817   1.00
C6       0.11622    0.30078    0.88959   1.00
C6       0.11607    0.23366    0.91886   1.00
H2       0.04625    0.29300    0.93554   1.00
C6       -0.01336   0.29627    0.91911   1.00
C6       0.01756    0.24119    0.95552   1.00
H2       -0.10346   0.31597    0.86814   1.00
H2       -0.13090   0.34770    0.83809   1.00
H2       -0.12917   0.35486    0.88918   1.00
H2       -0.09608   0.42396    0.89238   1.00
H2       -0.07178   0.43776    0.84937   1.00
H2       -0.11964   0.41961    0.84725   1.00
H2       0.06328    0.38677    0.80506   1.00
H2       0.03468    0.35345    0.77921   1.00
H2       0.02648    0.40418    0.77363   1.00
H2       -0.00862   0.42349    0.87580   1.00
H2       0.03692    0.43037    0.85395   1.00
H2       -0.00550   0.44437    0.82839   1.00
H2       -0.05514   0.43274    0.77170   1.00
H2       -0.08708   0.41435    0.73564   1.00
H2       -0.10332   0.41787    0.78337   1.00
H2       -0.01902   0.38099    0.72808   1.00
H2       -0.02068   0.33168    0.74101   1.00
H2       -0.05828   0.35165    0.71295   1.00
H2       -0.01688   0.20703    0.82745   1.00
H2       -0.01809   0.17035    0.86313   1.00
H2       -0.03048   0.21835    0.87580   1.00
H2       0.04875    0.15359    0.83917   1.00
H2       0.05426    0.19435    0.80878   1.00
H2       0.08878    0.18449    0.84573   1.00
H2       0.14798    0.29942    0.88661   1.00
H2       0.10565    0.32037    0.86676   1.00
H2       0.10965    0.31396    0.91782   1.00
H2       0.10584    0.20354    0.91760   1.00
H2       0.14788    0.23279    0.91621   1.00
H2       0.10915    0.24556    0.94761   1.00
H2       -0.03656   0.27927    0.90553   1.00
H2       -0.02381   0.30663    0.94739   1.00
H2       -0.00834   0.32189    0.90117   1.00
H2       0.00956    0.25513    0.98310   1.00
H2       -0.00622   0.22158    0.94736   1.00
H2       0.04343    0.22362    0.96130   1.00
C4       0.52084    0.24719    0.75116   1.00
C4       0.47912    0.24785    0.75145   1.00
C3       0.54364    0.22724    0.77943   1.00
C3       0.45616    0.23169    0.78194   1.00
C3       0.54123    0.26802    0.72141   1.00
C3       0.45886    0.26549    0.71962   1.00
C2       0.60512    0.24885    0.74966   1.00
C2       0.39488    0.25115    0.75034   1.00
C3       0.58462    0.22822    0.77886   1.00
C3       0.41519    0.23296    0.78124   1.00
C3       0.58258    0.26804    0.72091   1.00
C3       0.41762    0.26794    0.72029   1.00
H1       0.53115    0.21131    0.80119   1.00
H1       0.46852    0.21874    0.80566   1.00
C5       0.52020    0.28856    0.69225   1.00
C5       0.47980    0.28089    0.68745   1.00
H1       0.59955    0.21348    0.80023   1.00
H1       0.40010    0.22050    0.80392   1.00
H1       0.59680    0.28221    0.69877   1.00
H1       0.40368    0.28284    0.69853   1.00
O3       0.53961    0.31377    0.66766   1.00
O3       0.46099    0.29094    0.65321   1.00
Si1      0.54247    0.36006    0.67862   1.00
Si1      0.45279    0.25712    0.62071   1.00
C6       0.57538    0.37343    0.64131   1.00
C6       0.49598    0.38064    0.67075   1.00
C6       0.56253    0.36875    0.72528   1.00
C6       0.46693    0.20874    0.63169   1.00
C6       0.40198    0.25905    0.61448   1.00
C6       0.47477    0.27252    0.57686   1.00
C6       0.61194    0.34638    0.63630   1.00
H2       0.55791    0.36895    0.61504   1.00
C6       0.59147    0.41621    0.63823   1.00
H2       0.48358    0.36081    0.64915   1.00
C6       0.46634    0.38124    0.70547   1.00
C6       0.49336    0.42226    0.65212   1.00
H2       0.58831    0.34996    0.72510   1.00
C6       0.57772    0.41099    0.73401   1.00
C6       0.53849    0.35752    0.76270   1.00
C6       0.51071    0.20097    0.64196   1.00
C6       0.44225    0.18421    0.66134   1.00
H2       0.46212    0.19386    0.60394   1.00
H2       0.39051    0.24747    0.64183   1.00
C6       0.38378    0.30078    0.61041   1.00
C6       0.38393    0.23366    0.58114   1.00
H2       0.45375    0.29300    0.56446   1.00
C6       0.51336    0.29627    0.58089   1.00
C6       0.48244    0.24119    0.54448   1.00
H2       0.60346    0.31597    0.63186   1.00
H2       0.63090    0.34770    0.66191   1.00
H2       0.62917    0.35486    0.61082   1.00
H2       0.59608    0.42396    0.60762   1.00
H2       0.57178    0.43776    0.65063   1.00
H2       0.61964    0.41961    0.65275   1.00
H2       0.43672    0.38677    0.69494   1.00
H2       0.46532    0.35345    0.72079   1.00
H2       0.47352    0.40418    0.72637   1.00
H2       0.50862    0.42349    0.62420   1.00
H2       0.46308    0.43037    0.64605   1.00
H2       0.50550    0.44437    0.67161   1.00
H2       0.55514    0.43274    0.72830   1.00
H2       0.58708    0.41435    0.76436   1.00
H2       0.60332    0.41787    0.71663   1.00
H2       0.51902    0.38099    0.77192   1.00
H2       0.52068    0.33168    0.75899   1.00
H2       0.55828    0.35165    0.78705   1.00
H2       0.51688    0.20703    0.67255   1.00
H2       0.51809    0.17035    0.63687   1.00
H2       0.53048    0.21835    0.62420   1.00
H2       0.45125    0.15359    0.66083   1.00
H2       0.44574    0.19435    0.69122   1.00
H2       0.41122    0.18449    0.65427   1.00
H2       0.35202    0.29942    0.61339   1.00
H2       0.39435    0.32037    0.63324   1.00
H2       0.39035    0.31396    0.58218   1.00
H2       0.39416    0.20354    0.58240   1.00
H2       0.35212    0.23279    0.58379   1.00
H2       0.39085    0.24556    0.55239   1.00
H2       0.53656    0.27927    0.59447   1.00
H2       0.52381    0.30663    0.55261   1.00
H2       0.50834    0.32189    0.59883   1.00
H2       0.49044    0.25513    0.51690   1.00
H2       0.50622    0.22158    0.55264   1.00
H2       0.45657    0.22362    0.53870   1.00
C4       0.24884    -0.02084   0.74719   1.00
C4       0.24855    0.02088    0.74785   1.00
C3       0.22057    -0.04364   0.72724   1.00
C3       0.21806    0.04384    0.73169   1.00
C3       0.27859    -0.04123   0.76802   1.00
C3       0.28038    0.04114    0.76549   1.00
C2       0.25034    -0.10512   0.74885   1.00
C2       0.24966    0.10512    0.75115   1.00
C3       0.22114    -0.08462   0.72822   1.00
C3       0.21876    0.08481    0.73296   1.00
C3       0.27909    -0.08258   0.76804   1.00
C3       0.27971    0.08238    0.76794   1.00
H1       0.19881    -0.03115   0.71131   1.00
H1       0.19434    0.03148    0.71874   1.00
C5       0.30775    -0.02020   0.78856   1.00
C5       0.31255    0.02020    0.78089   1.00
H1       0.19977    -0.09955   0.71348   1.00
H1       0.19608    0.09990    0.72050   1.00
H1       0.30123    -0.09680   0.78221   1.00
H1       0.30147    0.09632    0.78284   1.00
O3       0.33234    -0.03961   0.81377   1.00
O3       0.34679    0.03901    0.79094   1.00
Si1      0.32138    -0.04247   0.86006   1.00
Si1      0.37929    0.04721    0.75712   1.00
C6       0.35869    -0.07538   0.87343   1.00
C6       0.32925    0.00402    0.88064   1.00
C6       0.27472    -0.06253   0.86875   1.00
C6       0.36831    0.03307    0.70874   1.00
C6       0.38552    0.09802    0.75905   1.00
C6       0.42314    0.02523    0.77252   1.00
C6       0.36370    -0.11194   0.84638   1.00
H2       0.38496    -0.05791   0.86895   1.00
C6       0.36177    -0.09147   0.91621   1.00
H2       0.35085    0.01642    0.86081   1.00
C6       0.29453    0.03366    0.88124   1.00
C6       0.34788    0.00664    0.92226   1.00
H2       0.27490    -0.08831   0.84996   1.00
C6       0.26599    -0.07772   0.91099   1.00
C6       0.23730    -0.03849   0.85752   1.00
C6       0.35804    -0.01071   0.70097   1.00
C6       0.33866    0.05775    0.68421   1.00
H2       0.39606    0.03788    0.69386   1.00
H2       0.35817    0.10949    0.74747   1.00
C6       0.38959    0.11622    0.80078   1.00
C6       0.41886    0.11607    0.73366   1.00
H2       0.43554    0.04625    0.79300   1.00
C6       0.41911    -0.01336   0.79627   1.00
C6       0.45552    0.01756    0.74119   1.00
H2       0.36814    -0.10346   0.81597   1.00
H2       0.33809    -0.13090   0.84770   1.00
H2       0.38918    -0.12917   0.85486   1.00
H2       0.39238    -0.09608   0.92396   1.00
H2       0.34937    -0.07178   0.93776   1.00
H2       0.34725    -0.11964   0.91961   1.00
H2       0.30506    0.06328    0.88677   1.00
H2       0.27921    0.03468    0.85345   1.00
H2       0.27363    0.02648    0.90418   1.00
H2       0.37580    -0.00862   0.92349   1.00
H2       0.35395    0.03692    0.93037   1.00
H2       0.32839    -0.00550   0.94437   1.00
H2       0.27170    -0.05514   0.93274   1.00
H2       0.23564    -0.08708   0.91435   1.00
H2       0.28337    -0.10332   0.91787   1.00
H2       0.22808    -0.01902   0.88099   1.00
H2       0.24101    -0.02068   0.83168   1.00
H2       0.21295    -0.05828   0.85165   1.00
H2       0.32745    -0.01688   0.70703   1.00
H2       0.36313    -0.01809   0.67035   1.00
H2       0.37580    -0.03048   0.71835   1.00
H2       0.33917    0.04875    0.65359   1.00
H2       0.30878    0.05426    0.69435   1.00
H2       0.34573    0.08878    0.68449   1.00
H2       0.38661    0.14798    0.79942   1.00
H2       0.36676    0.10565    0.82037   1.00
H2       0.41782    0.10965    0.81396   1.00
H2       0.41760    0.10584    0.70354   1.00
H2       0.41621    0.14788    0.73279   1.00
H2       0.44761    0.10915    0.74556   1.00
H2       0.40553    -0.03656   0.77927   1.00
H2       0.44739    -0.02381   0.80663   1.00
H2       0.40117    -0.00834   0.82189   1.00
H2       0.48310    0.00956    0.75513   1.00
H2       0.44736    -0.00622   0.72158   1.00
H2       0.46130    0.04343    0.72362   1.00
C4       0.24719    0.24884    0.47916   1.00
C4       0.24785    0.24855    0.52088   1.00
C3       0.22724    0.22057    0.45636   1.00
C3       0.23169    0.21806    0.54384   1.00
C3       0.26802    0.27859    0.45877   1.00
C3       0.26549    0.28038    0.54114   1.00
C2       0.24885    0.25034    0.39488   1.00
C2       0.25115    0.24966    0.60512   1.00
C3       0.22822    0.22114    0.41538   1.00
C3       0.23296    0.21876    0.58481   1.00
C3       0.26804    0.27909    0.41742   1.00
C3       0.26794    0.27971    0.58238   1.00
H1       0.21131    0.19881    0.46885   1.00
H1       0.21874    0.19434    0.53148   1.00
C5       0.28856    0.30775    0.47980   1.00
C5       0.28089    0.31255    0.52020   1.00
H1       0.21348    0.19977    0.40045   1.00
H1       0.22050    0.19608    0.59990   1.00
H1       0.28221    0.30123    0.40320   1.00
H1       0.28284    0.30147    0.59632   1.00
O3       0.31377    0.33234    0.46039   1.00
O3       0.29094    0.34679    0.53901   1.00
Si1      0.36006    0.32138    0.45753   1.00
Si1      0.25712    0.37929    0.54721   1.00
C6       0.37343    0.35869    0.42462   1.00
C6       0.38064    0.32925    0.50402   1.00
C6       0.36875    0.27472    0.43747   1.00
C6       0.20874    0.36831    0.53307   1.00
C6       0.25905    0.38552    0.59802   1.00
C6       0.27252    0.42314    0.52523   1.00
C6       0.34638    0.36370    0.38806   1.00
H2       0.36895    0.38496    0.44209   1.00
C6       0.41621    0.36177    0.40853   1.00
H2       0.36081    0.35085    0.51642   1.00
C6       0.38124    0.29453    0.53366   1.00
C6       0.42226    0.34788    0.50664   1.00
H2       0.34996    0.27490    0.41169   1.00
C6       0.41099    0.26599    0.42228   1.00
C6       0.35752    0.23730    0.46151   1.00
C6       0.20097    0.35804    0.48929   1.00
C6       0.18421    0.33866    0.55775   1.00
H2       0.19386    0.39606    0.53788   1.00
H2       0.24747    0.35817    0.60949   1.00
C6       0.30078    0.38959    0.61622   1.00
C6       0.23366    0.41886    0.61607   1.00
H2       0.29300    0.43554    0.54625   1.00
C6       0.29627    0.41911    0.48664   1.00
C6       0.24119    0.45552    0.51756   1.00
H2       0.31597    0.36814    0.39654   1.00
H2       0.34770    0.33809    0.36910   1.00
H2       0.35486    0.38918    0.37083   1.00
H2       0.42396    0.39238    0.40392   1.00
H2       0.43776    0.34937    0.42822   1.00
H2       0.41961    0.34725    0.38036   1.00
H2       0.38677    0.30506    0.56328   1.00
H2       0.35345    0.27921    0.53468   1.00
H2       0.40418    0.27363    0.52648   1.00
H2       0.42349    0.37580    0.49138   1.00
H2       0.43037    0.35395    0.53692   1.00
H2       0.44437    0.32839    0.49450   1.00
H2       0.43274    0.27170    0.44486   1.00
H2       0.41435    0.23564    0.41292   1.00
H2       0.41787    0.28337    0.39668   1.00
H2       0.38099    0.22808    0.48098   1.00
H2       0.33168    0.24101    0.47932   1.00
H2       0.35165    0.21295    0.44172   1.00
H2       0.20703    0.32745    0.48312   1.00
H2       0.17035    0.36313    0.48191   1.00
H2       0.21835    0.37580    0.46952   1.00
H2       0.15359    0.33917    0.54875   1.00
H2       0.19435    0.30878    0.55426   1.00
H2       0.18449    0.34573    0.58878   1.00
H2       0.29942    0.38661    0.64798   1.00
H2       0.32037    0.36676    0.60565   1.00
H2       0.31396    0.41782    0.60965   1.00
H2       0.20354    0.41760    0.60584   1.00
H2       0.23279    0.41621    0.64788   1.00
H2       0.24556    0.44761    0.60915   1.00
H2       0.27927    0.40553    0.46344   1.00
H2       0.30663    0.44739    0.47619   1.00
H2       0.32189    0.40117    0.49166   1.00
H2       0.25513    0.48310    0.50956   1.00
H2       0.22158    0.44736    0.49378   1.00
H2       0.22362    0.46130    0.54343   1.00
C4       0.24719    0.75116    0.52084   1.00
C4       0.24785    0.75145    0.47912   1.00
C3       0.22724    0.77943    0.54364   1.00
C3       0.23169    0.78194    0.45616   1.00
C3       0.26802    0.72141    0.54123   1.00
C3       0.26549    0.71962    0.45886   1.00
C2       0.24885    0.74966    0.60512   1.00
C2       0.25115    0.75034    0.39488   1.00
C3       0.22822    0.77886    0.58462   1.00
C3       0.23296    0.78124    0.41519   1.00
C3       0.26804    0.72091    0.58258   1.00
C3       0.26794    0.72029    0.41762   1.00
H1       0.21131    0.80119    0.53115   1.00
H1       0.21874    0.80566    0.46852   1.00
C5       0.28856    0.69225    0.52020   1.00
C5       0.28089    0.68745    0.47980   1.00
H1       0.21348    0.80023    0.59955   1.00
H1       0.22050    0.80392    0.40010   1.00
H1       0.28221    0.69877    0.59680   1.00
H1       0.28284    0.69853    0.40368   1.00
O3       0.31377    0.66766    0.53961   1.00
O3       0.29094    0.65321    0.46099   1.00
Si1      0.36006    0.67862    0.54247   1.00
Si1      0.25712    0.62071    0.45279   1.00
C6       0.37343    0.64131    0.57538   1.00
C6       0.38064    0.67075    0.49598   1.00
C6       0.36875    0.72528    0.56253   1.00
C6       0.20874    0.63169    0.46693   1.00
C6       0.25905    0.61448    0.40198   1.00
C6       0.27252    0.57686    0.47477   1.00
C6       0.34638    0.63630    0.61194   1.00
H2       0.36895    0.61504    0.55791   1.00
C6       0.41621    0.63823    0.59147   1.00
H2       0.36081    0.64915    0.48358   1.00
C6       0.38124    0.70547    0.46634   1.00
C6       0.42226    0.65212    0.49336   1.00
H2       0.34996    0.72510    0.58831   1.00
C6       0.41099    0.73401    0.57772   1.00
C6       0.35752    0.76270    0.53849   1.00
C6       0.20097    0.64196    0.51071   1.00
C6       0.18421    0.66134    0.44225   1.00
H2       0.19386    0.60394    0.46212   1.00
H2       0.24747    0.64183    0.39051   1.00
C6       0.30078    0.61041    0.38378   1.00
C6       0.23366    0.58114    0.38393   1.00
H2       0.29300    0.56446    0.45375   1.00
C6       0.29627    0.58089    0.51336   1.00
C6       0.24119    0.54448    0.48244   1.00
H2       0.31597    0.63186    0.60346   1.00
H2       0.34770    0.66191    0.63090   1.00
H2       0.35486    0.61082    0.62917   1.00
H2       0.42396    0.60762    0.59608   1.00
H2       0.43776    0.65063    0.57178   1.00
H2       0.41961    0.65275    0.61964   1.00
H2       0.38677    0.69494    0.43672   1.00
H2       0.35345    0.72079    0.46532   1.00
H2       0.40418    0.72637    0.47352   1.00
H2       0.42349    0.62420    0.50862   1.00
H2       0.43037    0.64605    0.46308   1.00
H2       0.44437    0.67161    0.50550   1.00
H2       0.43274    0.72830    0.55514   1.00
H2       0.41435    0.76436    0.58708   1.00
H2       0.41787    0.71663    0.60332   1.00
H2       0.38099    0.77192    0.51902   1.00
H2       0.33168    0.75899    0.52068   1.00
H2       0.35165    0.78705    0.55828   1.00
H2       0.20703    0.67255    0.51688   1.00
H2       0.17035    0.63687    0.51809   1.00
H2       0.21835    0.62420    0.53048   1.00
H2       0.15359    0.66083    0.45125   1.00
H2       0.19435    0.69122    0.44574   1.00
H2       0.18449    0.65427    0.41122   1.00
H2       0.29942    0.61339    0.35202   1.00
H2       0.32037    0.63324    0.39435   1.00
H2       0.31396    0.58218    0.39035   1.00
H2       0.20354    0.58240    0.39416   1.00
H2       0.23279    0.58379    0.35212   1.00
H2       0.24556    0.55239    0.39085   1.00
H2       0.27927    0.59447    0.53656   1.00
H2       0.30663    0.55261    0.52381   1.00
H2       0.32189    0.59883    0.50834   1.00
H2       0.25513    0.51690    0.49044   1.00
H2       0.22158    0.55264    0.50622   1.00
H2       0.22362    0.53870    0.45657   1.00
C4       0.25116    1.02084    0.24719   1.00
C4       0.25145    0.97912    0.24785   1.00
C3       0.27943    1.04364    0.22724   1.00
C3       0.28194    0.95616    0.23169   1.00
C3       0.22141    1.04123    0.26802   1.00
C3       0.21962    0.95886    0.26549   1.00
C2       0.24966    1.10512    0.24885   1.00
C2       0.25034    0.89488    0.25115   1.00
C3       0.27886    1.08462    0.22822   1.00
C3       0.28124    0.91519    0.23296   1.00
C3       0.22091    1.08258    0.26804   1.00
C3       0.22029    0.91762    0.26794   1.00
H1       0.30119    1.03115    0.21131   1.00
H1       0.30566    0.96852    0.21874   1.00
C5       0.19225    1.02020    0.28856   1.00
C5       0.18745    0.97980    0.28089   1.00
H1       0.30023    1.09955    0.21348   1.00
H1       0.30392    0.90010    0.22050   1.00
H1       0.19877    1.09680    0.28221   1.00
H1       0.19853    0.90368    0.28284   1.00
O3       0.16766    1.03961    0.31377   1.00
O3       0.15321    0.96099    0.29094   1.00
Si1      0.17862    1.04247    0.36006   1.00
Si1      0.12071    0.95279    0.25712   1.00
C6       0.14131    1.07538    0.37343   1.00
C6       0.17075    0.99598    0.38064   1.00
C6       0.22528    1.06253    0.36875   1.00
C6       0.13169    0.96693    0.20874   1.00
C6       0.11448    0.90198    0.25905   1.00
C6       0.07686    0.97477    0.27252   1.00
C6       0.13630    1.11194    0.34638   1.00
H2       0.11504    1.05791    0.36895   1.00
C6       0.13823    1.09147    0.41621   1.00
H2       0.14915    0.98358    0.36081   1.00
C6       0.20547    0.96634    0.38124   1.00
C6       0.15212    0.99336    0.42226   1.00
H2       0.22510    1.08831    0.34996   1.00
C6       0.23401    1.07772    0.41099   1.00
C6       0.26270    1.03849    0.35752   1.00
C6       0.14196    1.01071    0.20097   1.00
C6       0.16134    0.94225    0.18421   1.00
H2       0.10394    0.96212    0.19386   1.00
H2       0.14183    0.89051    0.24747   1.00
C6       0.11041    0.88378    0.30078   1.00
C6       0.08114    0.88393    0.23366   1.00
H2       0.06446    0.95375    0.29300   1.00
C6       0.08089    1.01336    0.29627   1.00
C6       0.04448    0.98244    0.24119   1.00
H2       0.13186    1.10346    0.31597   1.00
H2       0.16191    1.13090    0.34770   1.00
H2       0.11082    1.12917    0.35486   1.00
H2       0.10762    1.09608    0.42396   1.00
H2       0.15063    1.07178    0.43776   1.00
H2       0.15275    1.11964    0.41961   1.00
H2       0.19494    0.93672    0.38677   1.00
H2       0.22079    0.96532    0.35345   1.00
H2       0.22637    0.97352    0.40418   1.00
H2       0.12420    1.00862    0.42349   1.00
H2       0.14605    0.96308    0.43037   1.00
H2       0.17161    1.00550    0.44437   1.00
H2       0.22830    1.05514    0.43274   1.00
H2       0.26436    1.08708    0.41435   1.00
H2       0.21663    1.10332    0.41787   1.00
H2       0.27192    1.01902    0.38099   1.00
H2       0.25899    1.02068    0.33168   1.00
H2       0.28705    1.05828    0.35165   1.00
H2       0.17255    1.01688    0.20703   1.00
H2       0.13687    1.01809    0.17035   1.00
H2       0.12420    1.03048    0.21835   1.00
H2       0.16083    0.95125    0.15359   1.00
H2       0.19122    0.94574    0.19435   1.00
H2       0.15427    0.91122    0.18449   1.00
H2       0.11339    0.85202    0.29942   1.00
H2       0.13324    0.89435    0.32037   1.00
H2       0.08218    0.89035    0.31396   1.00
H2       0.08240    0.89416    0.20354   1.00
H2       0.08379    0.85212    0.23279   1.00
H2       0.05239    0.89085    0.24556   1.00
H2       0.09447    1.03656    0.27927   1.00
H2       0.05261    1.02381    0.30663   1.00
H2       0.09883    1.00834    0.32189   1.00
H2       0.01690    0.99044    0.25513   1.00
H2       0.05264    1.00622    0.22158   1.00
H2       0.03870    0.95657    0.22362   1.00
C4       -0.02084   0.74719    0.24884   1.00
C4       0.02088    0.74785    0.24855   1.00
C3       -0.04364   0.72724    0.22057   1.00
C3       0.04384    0.73169    0.21806   1.00
C3       -0.04123   0.76802    0.27859   1.00
C3       0.04114    0.76549    0.28038   1.00
C2       -0.10512   0.74885    0.25034   1.00
C2       0.10512    0.75115    0.24966   1.00
C3       -0.08462   0.72822    0.22114   1.00
C3       0.08481    0.73296    0.21876   1.00
C3       -0.08258   0.76804    0.27909   1.00
C3       0.08238    0.76794    0.27971   1.00
H1       -0.03115   0.71131    0.19881   1.00
H1       0.03148    0.71874    0.19434   1.00
C5       -0.02020   0.78856    0.30775   1.00
C5       0.02020    0.78089    0.31255   1.00
H1       -0.09955   0.71348    0.19977   1.00
H1       0.09990    0.72050    0.19608   1.00
H1       -0.09680   0.78221    0.30123   1.00
H1       0.09632    0.78284    0.30147   1.00
O3       -0.03961   0.81377    0.33234   1.00
O3       0.03901    0.79094    0.34679   1.00
Si1      -0.04247   0.86006    0.32138   1.00
Si1      0.04721    0.75712    0.37929   1.00
C6       -0.07538   0.87343    0.35869   1.00
C6       0.00402    0.88064    0.32925   1.00
C6       -0.06253   0.86875    0.27472   1.00
C6       0.03307    0.70874    0.36831   1.00
C6       0.09802    0.75905    0.38552   1.00
C6       0.02523    0.77252    0.42314   1.00
C6       -0.11194   0.84638    0.36370   1.00
H2       -0.05791   0.86895    0.38496   1.00
C6       -0.09147   0.91621    0.36177   1.00
H2       0.01642    0.86081    0.35085   1.00
C6       0.03366    0.88124    0.29453   1.00
C6       0.00664    0.92226    0.34788   1.00
H2       -0.08831   0.84996    0.27490   1.00
C6       -0.07772   0.91099    0.26599   1.00
C6       -0.03849   0.85752    0.23730   1.00
C6       -0.01071   0.70097    0.35804   1.00
C6       0.05775    0.68421    0.33866   1.00
H2       0.03788    0.69386    0.39606   1.00
H2       0.10949    0.74747    0.35817   1.00
C6       0.11622    0.80078    0.38959   1.00
C6       0.11607    0.73366    0.41886   1.00
H2       0.04625    0.79300    0.43554   1.00
C6       -0.01336   0.79627    0.41911   1.00
C6       0.01756    0.74119    0.45552   1.00
H2       -0.10346   0.81597    0.36814   1.00
H2       -0.13090   0.84770    0.33809   1.00
H2       -0.12917   0.85486    0.38918   1.00
H2       -0.09608   0.92396    0.39238   1.00
H2       -0.07178   0.93776    0.34937   1.00
H2       -0.11964   0.91961    0.34725   1.00
H2       0.06328    0.88677    0.30506   1.00
H2       0.03468    0.85345    0.27921   1.00
H2       0.02648    0.90418    0.27363   1.00
H2       -0.00862   0.92349    0.37580   1.00
H2       0.03692    0.93037    0.35395   1.00
H2       -0.00550   0.94437    0.32839   1.00
H2       -0.05514   0.93274    0.27170   1.00
H2       -0.08708   0.91435    0.23564   1.00
H2       -0.10332   0.91787    0.28337   1.00
H2       -0.01902   0.88099    0.22808   1.00
H2       -0.02068   0.83168    0.24101   1.00
H2       -0.05828   0.85165    0.21295   1.00
H2       -0.01688   0.70703    0.32745   1.00
H2       -0.01809   0.67035    0.36313   1.00
H2       -0.03048   0.71835    0.37580   1.00
H2       0.04875    0.65359    0.33917   1.00
H2       0.05426    0.69435    0.30878   1.00
H2       0.08878    0.68449    0.34573   1.00
H2       0.14798    0.79942    0.38661   1.00
H2       0.10565    0.82037    0.36676   1.00
H2       0.10965    0.81396    0.41782   1.00
H2       0.10584    0.70354    0.41760   1.00
H2       0.14788    0.73279    0.41621   1.00
H2       0.10915    0.74556    0.44761   1.00
H2       -0.03656   0.77927    0.40553   1.00
H2       -0.02381   0.80663    0.44739   1.00
H2       -0.00834   0.82189    0.40117   1.00
H2       0.00956    0.75513    0.48310   1.00
H2       -0.00622   0.72158    0.44736   1.00
H2       0.04343    0.72362    0.46130   1.00
C4       0.52084    0.74719    0.25116   1.00
C4       0.47912    0.74785    0.25145   1.00
C3       0.54364    0.72724    0.27943   1.00
C3       0.45616    0.73169    0.28194   1.00
C3       0.54123    0.76802    0.22141   1.00
C3       0.45886    0.76549    0.21962   1.00
C2       0.60512    0.74885    0.24966   1.00
C2       0.39488    0.75115    0.25034   1.00
C3       0.58462    0.72822    0.27886   1.00
C3       0.41519    0.73296    0.28124   1.00
C3       0.58258    0.76804    0.22091   1.00
C3       0.41762    0.76794    0.22029   1.00
H1       0.53115    0.71131    0.30119   1.00
H1       0.46852    0.71874    0.30566   1.00
C5       0.52020    0.78856    0.19225   1.00
C5       0.47980    0.78089    0.18745   1.00
H1       0.59955    0.71348    0.30023   1.00
H1       0.40010    0.72050    0.30392   1.00
H1       0.59680    0.78221    0.19877   1.00
H1       0.40368    0.78284    0.19853   1.00
O3       0.53961    0.81377    0.16766   1.00
O3       0.46099    0.79094    0.15321   1.00
Si1      0.54247    0.86006    0.17862   1.00
Si1      0.45279    0.75712    0.12071   1.00
C6       0.57538    0.87343    0.14131   1.00
C6       0.49598    0.88064    0.17075   1.00
C6       0.56253    0.86875    0.22528   1.00
C6       0.46693    0.70874    0.13169   1.00
C6       0.40198    0.75905    0.11448   1.00
C6       0.47477    0.77252    0.07686   1.00
C6       0.61194    0.84638    0.13630   1.00
H2       0.55791    0.86895    0.11504   1.00
C6       0.59147    0.91621    0.13823   1.00
H2       0.48358    0.86081    0.14915   1.00
C6       0.46634    0.88124    0.20547   1.00
C6       0.49336    0.92226    0.15212   1.00
H2       0.58831    0.84996    0.22510   1.00
C6       0.57772    0.91099    0.23401   1.00
C6       0.53849    0.85752    0.26270   1.00
C6       0.51071    0.70097    0.14196   1.00
C6       0.44225    0.68421    0.16134   1.00
H2       0.46212    0.69386    0.10394   1.00
H2       0.39051    0.74747    0.14183   1.00
C6       0.38378    0.80078    0.11041   1.00
C6       0.38393    0.73366    0.08114   1.00
H2       0.45375    0.79300    0.06446   1.00
C6       0.51336    0.79627    0.08089   1.00
C6       0.48244    0.74119    0.04448   1.00
H2       0.60346    0.81597    0.13186   1.00
H2       0.63090    0.84770    0.16191   1.00
H2       0.62917    0.85486    0.11082   1.00
H2       0.59608    0.92396    0.10762   1.00
H2       0.57178    0.93776    0.15063   1.00
H2       0.61964    0.91961    0.15275   1.00
H2       0.43672    0.88677    0.19494   1.00
H2       0.46532    0.85345    0.22079   1.00
H2       0.47352    0.90418    0.22637   1.00
H2       0.50862    0.92349    0.12420   1.00
H2       0.46308    0.93037    0.14605   1.00
H2       0.50550    0.94437    0.17161   1.00
H2       0.55514    0.93274    0.22830   1.00
H2       0.58708    0.91435    0.26436   1.00
H2       0.60332    0.91787    0.21663   1.00
H2       0.51902    0.88099    0.27192   1.00
H2       0.52068    0.83168    0.25899   1.00
H2       0.55828    0.85165    0.28705   1.00
H2       0.51688    0.70703    0.17255   1.00
H2       0.51809    0.67035    0.13687   1.00
H2       0.53048    0.71835    0.12420   1.00
H2       0.45125    0.65359    0.16083   1.00
H2       0.44574    0.69435    0.19122   1.00
H2       0.41122    0.68449    0.15427   1.00
H2       0.35202    0.79942    0.11339   1.00
H2       0.39435    0.82037    0.13324   1.00
H2       0.39035    0.81396    0.08218   1.00
H2       0.39416    0.70354    0.08240   1.00
H2       0.35212    0.73279    0.08379   1.00
H2       0.39085    0.74556    0.05239   1.00
H2       0.53656    0.77927    0.09447   1.00
H2       0.52381    0.80663    0.05261   1.00
H2       0.50834    0.82189    0.09883   1.00
H2       0.49044    0.75513    0.01690   1.00
H2       0.50622    0.72158    0.05264   1.00
H2       0.45657    0.72362    0.03870   1.00
C4       0.24884    0.47916    0.24719   1.00
C4       0.24855    0.52088    0.24785   1.00
C3       0.22057    0.45636    0.22724   1.00
C3       0.21806    0.54384    0.23169   1.00
C3       0.27859    0.45877    0.26802   1.00
C3       0.28038    0.54114    0.26549   1.00
C2       0.25034    0.39488    0.24885   1.00
C2       0.24966    0.60512    0.25115   1.00
C3       0.22114    0.41538    0.22822   1.00
C3       0.21876    0.58481    0.23296   1.00
C3       0.27909    0.41742    0.26804   1.00
C3       0.27971    0.58238    0.26794   1.00
H1       0.19881    0.46885    0.21131   1.00
H1       0.19434    0.53148    0.21874   1.00
C5       0.30775    0.47980    0.28856   1.00
C5       0.31255    0.52020    0.28089   1.00
H1       0.19977    0.40045    0.21348   1.00
H1       0.19608    0.59990    0.22050   1.00
H1       0.30123    0.40320    0.28221   1.00
H1       0.30147    0.59632    0.28284   1.00
O3       0.33234    0.46039    0.31377   1.00
O3       0.34679    0.53901    0.29094   1.00
Si1      0.32138    0.45753    0.36006   1.00
Si1      0.37929    0.54721    0.25712   1.00
C6       0.35869    0.42462    0.37343   1.00
C6       0.32925    0.50402    0.38064   1.00
C6       0.27472    0.43747    0.36875   1.00
C6       0.36831    0.53307    0.20874   1.00
C6       0.38552    0.59802    0.25905   1.00
C6       0.42314    0.52523    0.27252   1.00
C6       0.36370    0.38806    0.34638   1.00
H2       0.38496    0.44209    0.36895   1.00
C6       0.36177    0.40853    0.41621   1.00
H2       0.35085    0.51642    0.36081   1.00
C6       0.29453    0.53366    0.38124   1.00
C6       0.34788    0.50664    0.42226   1.00
H2       0.27490    0.41169    0.34996   1.00
C6       0.26599    0.42228    0.41099   1.00
C6       0.23730    0.46151    0.35752   1.00
C6       0.35804    0.48929    0.20097   1.00
C6       0.33866    0.55775    0.18421   1.00
H2       0.39606    0.53788    0.19386   1.00
H2       0.35817    0.60949    0.24747   1.00
C6       0.38959    0.61622    0.30078   1.00
C6       0.41886    0.61607    0.23366   1.00
H2       0.43554    0.54625    0.29300   1.00
C6       0.41911    0.48664    0.29627   1.00
C6       0.45552    0.51756    0.24119   1.00
H2       0.36814    0.39654    0.31597   1.00
H2       0.33809    0.36910    0.34770   1.00
H2       0.38918    0.37083    0.35486   1.00
H2       0.39238    0.40392    0.42396   1.00
H2       0.34937    0.42822    0.43776   1.00
H2       0.34725    0.38036    0.41961   1.00
H2       0.30506    0.56328    0.38677   1.00
H2       0.27921    0.53468    0.35345   1.00
H2       0.27363    0.52648    0.40418   1.00
H2       0.37580    0.49138    0.42349   1.00
H2       0.35395    0.53692    0.43037   1.00
H2       0.32839    0.49450    0.44437   1.00
H2       0.27170    0.44486    0.43274   1.00
H2       0.23564    0.41292    0.41435   1.00
H2       0.28337    0.39668    0.41787   1.00
H2       0.22808    0.48098    0.38099   1.00
H2       0.24101    0.47932    0.33168   1.00
H2       0.21295    0.44172    0.35165   1.00
H2       0.32745    0.48312    0.20703   1.00
H2       0.36313    0.48191    0.17035   1.00
H2       0.37580    0.46952    0.21835   1.00
H2       0.33917    0.54875    0.15359   1.00
H2       0.30878    0.55426    0.19435   1.00
H2       0.34573    0.58878    0.18449   1.00
H2       0.38661    0.64798    0.29942   1.00
H2       0.36676    0.60565    0.32037   1.00
H2       0.41782    0.60965    0.31396   1.00
H2       0.41760    0.60584    0.20354   1.00
H2       0.41621    0.64788    0.23279   1.00
H2       0.44761    0.60915    0.24556   1.00
H2       0.40553    0.46344    0.27927   1.00
H2       0.44739    0.47619    0.30663   1.00
H2       0.40117    0.49166    0.32189   1.00
H2       0.48310    0.50956    0.25513   1.00
H2       0.44736    0.49378    0.22158   1.00
H2       0.46130    0.54343    0.22362   1.00
C4       0.24719    0.74884    -0.02084   1.00
C4       0.24785    0.74855    0.02088   1.00
C3       0.22724    0.72057    -0.04364   1.00
C3       0.23169    0.71806    0.04384   1.00
C3       0.26802    0.77859    -0.04123   1.00
C3       0.26549    0.78038    0.04114   1.00
C2       0.24885    0.75034    -0.10512   1.00
C2       0.25115    0.74966    0.10512   1.00
C3       0.22822    0.72114    -0.08462   1.00
C3       0.23296    0.71876    0.08481   1.00
C3       0.26804    0.77909    -0.08258   1.00
C3       0.26794    0.77971    0.08238   1.00
H1       0.21131    0.69881    -0.03115   1.00
H1       0.21874    0.69434    0.03148   1.00
C5       0.28856    0.80775    -0.02020   1.00
C5       0.28089    0.81255    0.02020   1.00
H1       0.21348    0.69977    -0.09955   1.00
H1       0.22050    0.69608    0.09990   1.00
H1       0.28221    0.80123    -0.09680   1.00
H1       0.28284    0.80147    0.09632   1.00
O3       0.31377    0.83234    -0.03961   1.00
O3       0.29094    0.84679    0.03901   1.00
Si1      0.36006    0.82138    -0.04247   1.00
Si1      0.25712    0.87929    0.04721   1.00
C6       0.37343    0.85869    -0.07538   1.00
C6       0.38064    0.82925    0.00402   1.00
C6       0.36875    0.77472    -0.06253   1.00
C6       0.20874    0.86831    0.03307   1.00
C6       0.25905    0.88552    0.09802   1.00
C6       0.27252    0.92314    0.02523   1.00
C6       0.34638    0.86370    -0.11194   1.00
H2       0.36895    0.88496    -0.05791   1.00
C6       0.41621    0.86177    -0.09147   1.00
H2       0.36081    0.85085    0.01642   1.00
C6       0.38124    0.79453    0.03366   1.00
C6       0.42226    0.84788    0.00664   1.00
H2       0.34996    0.77490    -0.08831   1.00
C6       0.41099    0.76599    -0.07772   1.00
C6       0.35752    0.73730    -0.03849   1.00
C6       0.20097    0.85804    -0.01071   1.00
C6       0.18421    0.83866    0.05775   1.00
H2       0.19386    0.89606    0.03788   1.00
H2       0.24747    0.85817    0.10949   1.00
C6       0.30078    0.88959    0.11622   1.00
C6       0.23366    0.91886    0.11607   1.00
H2       0.29300    0.93554    0.04625   1.00
C6       0.29627    0.91911    -0.01336   1.00
C6       0.24119    0.95552    0.01756   1.00
H2       0.31597    0.86814    -0.10346   1.00
H2       0.34770    0.83809    -0.13090   1.00
H2       0.35486    0.88918    -0.12917   1.00
H2       0.42396    0.89238    -0.09608   1.00
H2       0.43776    0.84937    -0.07178   1.00
H2       0.41961    0.84725    -0.11964   1.00
H2       0.38677    0.80506    0.06328   1.00
H2       0.35345    0.77921    0.03468   1.00
H2       0.40418    0.77363    0.02648   1.00
H2       0.42349    0.87580    -0.00862   1.00
H2       0.43037    0.85395    0.03692   1.00
H2       0.44437    0.82839    -0.00550   1.00
H2       0.43274    0.77170    -0.05514   1.00
H2       0.41435    0.73564    -0.08708   1.00
H2       0.41787    0.78337    -0.10332   1.00
H2       0.38099    0.72808    -0.01902   1.00
H2       0.33168    0.74101    -0.02068   1.00
H2       0.35165    0.71295    -0.05828   1.00
H2       0.20703    0.82745    -0.01688   1.00
H2       0.17035    0.86313    -0.01809   1.00
H2       0.21835    0.87580    -0.03048   1.00
H2       0.15359    0.83917    0.04875   1.00
H2       0.19435    0.80878    0.05426   1.00
H2       0.18449    0.84573    0.08878   1.00
H2       0.29942    0.88661    0.14798   1.00
H2       0.32037    0.86676    0.10565   1.00
H2       0.31396    0.91782    0.10965   1.00
H2       0.20354    0.91760    0.10584   1.00
H2       0.23279    0.91621    0.14788   1.00
H2       0.24556    0.94761    0.10915   1.00
H2       0.27927    0.90553    -0.03656   1.00
H2       0.30663    0.94739    -0.02381   1.00
H2       0.32189    0.90117    -0.00834   1.00
H2       0.25513    0.98310    0.00956   1.00
H2       0.22158    0.94736    -0.00622   1.00
H2       0.22362    0.96130    0.04343   1.00
C4       0.74719    0.25116    0.52084   1.00
C4       0.74785    0.25145    0.47912   1.00
C3       0.72724    0.27943    0.54364   1.00
C3       0.73169    0.28194    0.45616   1.00
C3       0.76802    0.22141    0.54123   1.00
C3       0.76549    0.21962    0.45886   1.00
C2       0.74885    0.24966    0.60512   1.00
C2       0.75115    0.25034    0.39488   1.00
C3       0.72822    0.27886    0.58462   1.00
C3       0.73296    0.28124    0.41519   1.00
C3       0.76804    0.22091    0.58258   1.00
C3       0.76794    0.22029    0.41762   1.00
H1       0.71131    0.30119    0.53115   1.00
H1       0.71874    0.30566    0.46852   1.00
C5       0.78856    0.19225    0.52020   1.00
C5       0.78089    0.18745    0.47980   1.00
H1       0.71348    0.30023    0.59955   1.00
H1       0.72050    0.30392    0.40010   1.00
H1       0.78221    0.19877    0.59680   1.00
H1       0.78284    0.19853    0.40368   1.00
O3       0.81377    0.16766    0.53961   1.00
O3       0.79094    0.15321    0.46099   1.00
Si1      0.86006    0.17862    0.54247   1.00
Si1      0.75712    0.12071    0.45279   1.00
C6       0.87343    0.14131    0.57538   1.00
C6       0.88064    0.17075    0.49598   1.00
C6       0.86875    0.22528    0.56253   1.00
C6       0.70874    0.13169    0.46693   1.00
C6       0.75905    0.11448    0.40198   1.00
C6       0.77252    0.07686    0.47477   1.00
C6       0.84638    0.13630    0.61194   1.00
H2       0.86895    0.11504    0.55791   1.00
C6       0.91621    0.13823    0.59147   1.00
H2       0.86081    0.14915    0.48358   1.00
C6       0.88124    0.20547    0.46634   1.00
C6       0.92226    0.15212    0.49336   1.00
H2       0.84996    0.22510    0.58831   1.00
C6       0.91099    0.23401    0.57772   1.00
C6       0.85752    0.26270    0.53849   1.00
C6       0.70097    0.14196    0.51071   1.00
C6       0.68421    0.16134    0.44225   1.00
H2       0.69386    0.10394    0.46212   1.00
H2       0.74747    0.14183    0.39051   1.00
C6       0.80078    0.11041    0.38378   1.00
C6       0.73366    0.08114    0.38393   1.00
H2       0.79300    0.06446    0.45375   1.00
C6       0.79627    0.08089    0.51336   1.00
C6       0.74119    0.04448    0.48244   1.00
H2       0.81597    0.13186    0.60346   1.00
H2       0.84770    0.16191    0.63090   1.00
H2       0.85486    0.11082    0.62917   1.00
H2       0.92396    0.10762    0.59608   1.00
H2       0.93776    0.15063    0.57178   1.00
H2       0.91961    0.15275    0.61964   1.00
H2       0.88677    0.19494    0.43672   1.00
H2       0.85345    0.22079    0.46532   1.00
H2       0.90418    0.22637    0.47352   1.00
H2       0.92349    0.12420    0.50862   1.00
H2       0.93037    0.14605    0.46308   1.00
H2       0.94437    0.17161    0.50550   1.00
H2       0.93274    0.22830    0.55514   1.00
H2       0.91435    0.26436    0.58708   1.00
H2       0.91787    0.21663    0.60332   1.00
H2       0.88099    0.27192    0.51902   1.00
H2       0.83168    0.25899    0.52068   1.00
H2       0.85165    0.28705    0.55828   1.00
H2       0.70703    0.17255    0.51688   1.00
H2       0.67035    0.13687    0.51809   1.00
H2       0.71835    0.12420    0.53048   1.00
H2       0.65359    0.16083    0.45125   1.00
H2       0.69435    0.19122    0.44574   1.00
H2       0.68449    0.15427    0.41122   1.00
H2       0.79942    0.11339    0.35202   1.00
H2       0.82037    0.13324    0.39435   1.00
H2       0.81396    0.08218    0.39035   1.00
H2       0.70354    0.08240    0.39416   1.00
H2       0.73279    0.08379    0.35212   1.00
H2       0.74556    0.05239    0.39085   1.00
H2       0.77927    0.09447    0.53656   1.00
H2       0.80663    0.05261    0.52381   1.00
H2       0.82189    0.09883    0.50834   1.00
H2       0.75513    0.01690    0.49044   1.00
H2       0.72158    0.05264    0.50622   1.00
H2       0.72362    0.03870    0.45657   1.00
C4       0.75116    0.52084    0.24719   1.00
C4       0.75145    0.47912    0.24785   1.00
C3       0.77943    0.54364    0.22724   1.00
C3       0.78194    0.45616    0.23169   1.00
C3       0.72141    0.54123    0.26802   1.00
C3       0.71962    0.45886    0.26549   1.00
C2       0.74966    0.60512    0.24885   1.00
C2       0.75034    0.39488    0.25115   1.00
C3       0.77886    0.58462    0.22822   1.00
C3       0.78124    0.41519    0.23296   1.00
C3       0.72091    0.58258    0.26804   1.00
C3       0.72029    0.41762    0.26794   1.00
H1       0.80119    0.53115    0.21131   1.00
H1       0.80566    0.46852    0.21874   1.00
C5       0.69225    0.52020    0.28856   1.00
C5       0.68745    0.47980    0.28089   1.00
H1       0.80023    0.59955    0.21348   1.00
H1       0.80392    0.40010    0.22050   1.00
H1       0.69877    0.59680    0.28221   1.00
H1       0.69853    0.40368    0.28284   1.00
O3       0.66766    0.53961    0.31377   1.00
O3       0.65321    0.46099    0.29094   1.00
Si1      0.67862    0.54247    0.36006   1.00
Si1      0.62071    0.45279    0.25712   1.00
C6       0.64131    0.57538    0.37343   1.00
C6       0.67075    0.49598    0.38064   1.00
C6       0.72528    0.56253    0.36875   1.00
C6       0.63169    0.46693    0.20874   1.00
C6       0.61448    0.40198    0.25905   1.00
C6       0.57686    0.47477    0.27252   1.00
C6       0.63630    0.61194    0.34638   1.00
H2       0.61504    0.55791    0.36895   1.00
C6       0.63823    0.59147    0.41621   1.00
H2       0.64915    0.48358    0.36081   1.00
C6       0.70547    0.46634    0.38124   1.00
C6       0.65212    0.49336    0.42226   1.00
H2       0.72510    0.58831    0.34996   1.00
C6       0.73401    0.57772    0.41099   1.00
C6       0.76270    0.53849    0.35752   1.00
C6       0.64196    0.51071    0.20097   1.00
C6       0.66134    0.44225    0.18421   1.00
H2       0.60394    0.46212    0.19386   1.00
H2       0.64183    0.39051    0.24747   1.00
C6       0.61041    0.38378    0.30078   1.00
C6       0.58114    0.38393    0.23366   1.00
H2       0.56446    0.45375    0.29300   1.00
C6       0.58089    0.51336    0.29627   1.00
C6       0.54448    0.48244    0.24119   1.00
H2       0.63186    0.60346    0.31597   1.00
H2       0.66191    0.63090    0.34770   1.00
H2       0.61082    0.62917    0.35486   1.00
H2       0.60762    0.59608    0.42396   1.00
H2       0.65063    0.57178    0.43776   1.00
H2       0.65275    0.61964    0.41961   1.00
H2       0.69494    0.43672    0.38677   1.00
H2       0.72079    0.46532    0.35345   1.00
H2       0.72637    0.47352    0.40418   1.00
H2       0.62420    0.50862    0.42349   1.00
H2       0.64605    0.46308    0.43037   1.00
H2       0.67161    0.50550    0.44437   1.00
H2       0.72830    0.55514    0.43274   1.00
H2       0.76436    0.58708    0.41435   1.00
H2       0.71663    0.60332    0.41787   1.00
H2       0.77192    0.51902    0.38099   1.00
H2       0.75899    0.52068    0.33168   1.00
H2       0.78705    0.55828    0.35165   1.00
H2       0.67255    0.51688    0.20703   1.00
H2       0.63687    0.51809    0.17035   1.00
H2       0.62420    0.53048    0.21835   1.00
H2       0.66083    0.45125    0.15359   1.00
H2       0.69122    0.44574    0.19435   1.00
H2       0.65427    0.41122    0.18449   1.00
H2       0.61339    0.35202    0.29942   1.00
H2       0.63324    0.39435    0.32037   1.00
H2       0.58218    0.39035    0.31396   1.00
H2       0.58240    0.39416    0.20354   1.00
H2       0.58379    0.35212    0.23279   1.00
H2       0.55239    0.39085    0.24556   1.00
H2       0.59447    0.53656    0.27927   1.00
H2       0.55261    0.52381    0.30663   1.00
H2       0.59883    0.50834    0.32189   1.00
H2       0.51690    0.49044    0.25513   1.00
H2       0.55264    0.50622    0.22158   1.00
H2       0.53870    0.45657    0.22362   1.00
C4       0.47916    0.24719    0.24884   1.00
C4       0.52088    0.24785    0.24855   1.00
C3       0.45636    0.22724    0.22057   1.00
C3       0.54384    0.23169    0.21806   1.00
C3       0.45877    0.26802    0.27859   1.00
C3       0.54114    0.26549    0.28038   1.00
C2       0.39488    0.24885    0.25034   1.00
C2       0.60512    0.25115    0.24966   1.00
C3       0.41538    0.22822    0.22114   1.00
C3       0.58481    0.23296    0.21876   1.00
C3       0.41742    0.26804    0.27909   1.00
C3       0.58238    0.26794    0.27971   1.00
H1       0.46885    0.21131    0.19881   1.00
H1       0.53148    0.21874    0.19434   1.00
C5       0.47980    0.28856    0.30775   1.00
C5       0.52020    0.28089    0.31255   1.00
H1       0.40045    0.21348    0.19977   1.00
H1       0.59990    0.22050    0.19608   1.00
H1       0.40320    0.28221    0.30123   1.00
H1       0.59632    0.28284    0.30147   1.00
O3       0.46039    0.31377    0.33234   1.00
O3       0.53901    0.29094    0.34679   1.00
Si1      0.45753    0.36006    0.32138   1.00
Si1      0.54721    0.25712    0.37929   1.00
C6       0.42462    0.37343    0.35869   1.00
C6       0.50402    0.38064    0.32925   1.00
C6       0.43747    0.36875    0.27472   1.00
C6       0.53307    0.20874    0.36831   1.00
C6       0.59802    0.25905    0.38552   1.00
C6       0.52523    0.27252    0.42314   1.00
C6       0.38806    0.34638    0.36370   1.00
H2       0.44209    0.36895    0.38496   1.00
C6       0.40853    0.41621    0.36177   1.00
H2       0.51642    0.36081    0.35085   1.00
C6       0.53366    0.38124    0.29453   1.00
C6       0.50664    0.42226    0.34788   1.00
H2       0.41169    0.34996    0.27490   1.00
C6       0.42228    0.41099    0.26599   1.00
C6       0.46151    0.35752    0.23730   1.00
C6       0.48929    0.20097    0.35804   1.00
C6       0.55775    0.18421    0.33866   1.00
H2       0.53788    0.19386    0.39606   1.00
H2       0.60949    0.24747    0.35817   1.00
C6       0.61622    0.30078    0.38959   1.00
C6       0.61607    0.23366    0.41886   1.00
H2       0.54625    0.29300    0.43554   1.00
C6       0.48664    0.29627    0.41911   1.00
C6       0.51756    0.24119    0.45552   1.00
H2       0.39654    0.31597    0.36814   1.00
H2       0.36910    0.34770    0.33809   1.00
H2       0.37083    0.35486    0.38918   1.00
H2       0.40392    0.42396    0.39238   1.00
H2       0.42822    0.43776    0.34937   1.00
H2       0.38036    0.41961    0.34725   1.00
H2       0.56328    0.38677    0.30506   1.00
H2       0.53468    0.35345    0.27921   1.00
H2       0.52648    0.40418    0.27363   1.00
H2       0.49138    0.42349    0.37580   1.00
H2       0.53692    0.43037    0.35395   1.00
H2       0.49450    0.44437    0.32839   1.00
H2       0.44486    0.43274    0.27170   1.00
H2       0.41292    0.41435    0.23564   1.00
H2       0.39668    0.41787    0.28337   1.00
H2       0.48098    0.38099    0.22808   1.00
H2       0.47932    0.33168    0.24101   1.00
H2       0.44172    0.35165    0.21295   1.00
H2       0.48312    0.20703    0.32745   1.00
H2       0.48191    0.17035    0.36313   1.00
H2       0.46952    0.21835    0.37580   1.00
H2       0.54875    0.15359    0.33917   1.00
H2       0.55426    0.19435    0.30878   1.00
H2       0.58878    0.18449    0.34573   1.00
H2       0.64798    0.29942    0.38661   1.00
H2       0.60565    0.32037    0.36676   1.00
H2       0.60965    0.31396    0.41782   1.00
H2       0.60584    0.20354    0.41760   1.00
H2       0.64788    0.23279    0.41621   1.00
H2       0.60915    0.24556    0.44761   1.00
H2       0.46344    0.27927    0.40553   1.00
H2       0.47619    0.30663    0.44739   1.00
H2       0.49166    0.32189    0.40117   1.00
H2       0.50956    0.25513    0.48310   1.00
H2       0.49378    0.22158    0.44736   1.00
H2       0.54343    0.22362    0.46130   1.00
C4       1.02084    0.24719    0.25116   1.00
C4       0.97912    0.24785    0.25145   1.00
C3       1.04364    0.22724    0.27943   1.00
C3       0.95616    0.23169    0.28194   1.00
C3       1.04123    0.26802    0.22141   1.00
C3       0.95886    0.26549    0.21962   1.00
C2       1.10512    0.24885    0.24966   1.00
C2       0.89488    0.25115    0.25034   1.00
C3       1.08462    0.22822    0.27886   1.00
C3       0.91519    0.23296    0.28124   1.00
C3       1.08258    0.26804    0.22091   1.00
C3       0.91762    0.26794    0.22029   1.00
H1       1.03115    0.21131    0.30119   1.00
H1       0.96852    0.21874    0.30566   1.00
C5       1.02020    0.28856    0.19225   1.00
C5       0.97980    0.28089    0.18745   1.00
H1       1.09955    0.21348    0.30023   1.00
H1       0.90010    0.22050    0.30392   1.00
H1       1.09680    0.28221    0.19877   1.00
H1       0.90368    0.28284    0.19853   1.00
O3       1.03961    0.31377    0.16766   1.00
O3       0.96099    0.29094    0.15321   1.00
Si1      1.04247    0.36006    0.17862   1.00
Si1      0.95279    0.25712    0.12071   1.00
C6       1.07538    0.37343    0.14131   1.00
C6       0.99598    0.38064    0.17075   1.00
C6       1.06253    0.36875    0.22528   1.00
C6       0.96693    0.20874    0.13169   1.00
C6       0.90198    0.25905    0.11448   1.00
C6       0.97477    0.27252    0.07686   1.00
C6       1.11194    0.34638    0.13630   1.00
H2       1.05791    0.36895    0.11504   1.00
C6       1.09147    0.41621    0.13823   1.00
H2       0.98358    0.36081    0.14915   1.00
C6       0.96634    0.38124    0.20547   1.00
C6       0.99336    0.42226    0.15212   1.00
H2       1.08831    0.34996    0.22510   1.00
C6       1.07772    0.41099    0.23401   1.00
C6       1.03849    0.35752    0.26270   1.00
C6       1.01071    0.20097    0.14196   1.00
C6       0.94225    0.18421    0.16134   1.00
H2       0.96212    0.19386    0.10394   1.00
H2       0.89051    0.24747    0.14183   1.00
C6       0.88378    0.30078    0.11041   1.00
C6       0.88393    0.23366    0.08114   1.00
H2       0.95375    0.29300    0.06446   1.00
C6       1.01336    0.29627    0.08089   1.00
C6       0.98244    0.24119    0.04448   1.00
H2       1.10346    0.31597    0.13186   1.00
H2       1.13090    0.34770    0.16191   1.00
H2       1.12917    0.35486    0.11082   1.00
H2       1.09608    0.42396    0.10762   1.00
H2       1.07178    0.43776    0.15063   1.00
H2       1.11964    0.41961    0.15275   1.00
H2       0.93672    0.38677    0.19494   1.00
H2       0.96532    0.35345    0.22079   1.00
H2       0.97352    0.40418    0.22637   1.00
H2       1.00862    0.42349    0.12420   1.00
H2       0.96308    0.43037    0.14605   1.00
H2       1.00550    0.44437    0.17161   1.00
H2       1.05514    0.43274    0.22830   1.00
H2       1.08708    0.41435    0.26436   1.00
H2       1.10332    0.41787    0.21663   1.00
H2       1.01902    0.38099    0.27192   1.00
H2       1.02068    0.33168    0.25899   1.00
H2       1.05828    0.35165    0.28705   1.00
H2       1.01688    0.20703    0.17255   1.00
H2       1.01809    0.17035    0.13687   1.00
H2       1.03048    0.21835    0.12420   1.00
H2       0.95125    0.15359    0.16083   1.00
H2       0.94574    0.19435    0.19122   1.00
H2       0.91122    0.18449    0.15427   1.00
H2       0.85202    0.29942    0.11339   1.00
H2       0.89435    0.32037    0.13324   1.00
H2       0.89035    0.31396    0.08218   1.00
H2       0.89416    0.20354    0.08240   1.00
H2       0.85212    0.23279    0.08379   1.00
H2       0.89085    0.24556    0.05239   1.00
H2       1.03656    0.27927    0.09447   1.00
H2       1.02381    0.30663    0.05261   1.00
H2       1.00834    0.32189    0.09883   1.00
H2       0.99044    0.25513    0.01690   1.00
H2       1.00622    0.22158    0.05264   1.00
H2       0.95657    0.22362    0.03870   1.00
C4       0.74884    -0.02084   0.24719   1.00
C4       0.74855    0.02088    0.24785   1.00
C3       0.72057    -0.04364   0.22724   1.00
C3       0.71806    0.04384    0.23169   1.00
C3       0.77859    -0.04123   0.26802   1.00
C3       0.78038    0.04114    0.26549   1.00
C2       0.75034    -0.10512   0.24885   1.00
C2       0.74966    0.10512    0.25115   1.00
C3       0.72114    -0.08462   0.22822   1.00
C3       0.71876    0.08481    0.23296   1.00
C3       0.77909    -0.08258   0.26804   1.00
C3       0.77971    0.08238    0.26794   1.00
H1       0.69881    -0.03115   0.21131   1.00
H1       0.69434    0.03148    0.21874   1.00
C5       0.80775    -0.02020   0.28856   1.00
C5       0.81255    0.02020    0.28089   1.00
H1       0.69977    -0.09955   0.21348   1.00
H1       0.69608    0.09990    0.22050   1.00
H1       0.80123    -0.09680   0.28221   1.00
H1       0.80147    0.09632    0.28284   1.00
O3       0.83234    -0.03961   0.31377   1.00
O3       0.84679    0.03901    0.29094   1.00
Si1      0.82138    -0.04247   0.36006   1.00
Si1      0.87929    0.04721    0.25712   1.00
C6       0.85869    -0.07538   0.37343   1.00
C6       0.82925    0.00402    0.38064   1.00
C6       0.77472    -0.06253   0.36875   1.00
C6       0.86831    0.03307    0.20874   1.00
C6       0.88552    0.09802    0.25905   1.00
C6       0.92314    0.02523    0.27252   1.00
C6       0.86370    -0.11194   0.34638   1.00
H2       0.88496    -0.05791   0.36895   1.00
C6       0.86177    -0.09147   0.41621   1.00
H2       0.85085    0.01642    0.36081   1.00
C6       0.79453    0.03366    0.38124   1.00
C6       0.84788    0.00664    0.42226   1.00
H2       0.77490    -0.08831   0.34996   1.00
C6       0.76599    -0.07772   0.41099   1.00
C6       0.73730    -0.03849   0.35752   1.00
C6       0.85804    -0.01071   0.20097   1.00
C6       0.83866    0.05775    0.18421   1.00
H2       0.89606    0.03788    0.19386   1.00
H2       0.85817    0.10949    0.24747   1.00
C6       0.88959    0.11622    0.30078   1.00
C6       0.91886    0.11607    0.23366   1.00
H2       0.93554    0.04625    0.29300   1.00
C6       0.91911    -0.01336   0.29627   1.00
C6       0.95552    0.01756    0.24119   1.00
H2       0.86814    -0.10346   0.31597   1.00
H2       0.83809    -0.13090   0.34770   1.00
H2       0.88918    -0.12917   0.35486   1.00
H2       0.89238    -0.09608   0.42396   1.00
H2       0.84937    -0.07178   0.43776   1.00
H2       0.84725    -0.11964   0.41961   1.00
H2       0.80506    0.06328    0.38677   1.00
H2       0.77921    0.03468    0.35345   1.00
H2       0.77363    0.02648    0.40418   1.00
H2       0.87580    -0.00862   0.42349   1.00
H2       0.85395    0.03692    0.43037   1.00
H2       0.82839    -0.00550   0.44437   1.00
H2       0.77170    -0.05514   0.43274   1.00
H2       0.73564    -0.08708   0.41435   1.00
H2       0.78337    -0.10332   0.41787   1.00
H2       0.72808    -0.01902   0.38099   1.00
H2       0.74101    -0.02068   0.33168   1.00
H2       0.71295    -0.05828   0.35165   1.00
H2       0.82745    -0.01688   0.20703   1.00
H2       0.86313    -0.01809   0.17035   1.00
H2       0.87580    -0.03048   0.21835   1.00
H2       0.83917    0.04875    0.15359   1.00
H2       0.80878    0.05426    0.19435   1.00
H2       0.84573    0.08878    0.18449   1.00
H2       0.88661    0.14798    0.29942   1.00
H2       0.86676    0.10565    0.32037   1.00
H2       0.91782    0.10965    0.31396   1.00
H2       0.91760    0.10584    0.20354   1.00
H2       0.91621    0.14788    0.23279   1.00
H2       0.94761    0.10915    0.24556   1.00
H2       0.90553    -0.03656   0.27927   1.00
H2       0.94739    -0.02381   0.30663   1.00
H2       0.90117    -0.00834   0.32189   1.00
H2       0.98310    0.00956    0.25513   1.00
H2       0.94736    -0.00622   0.22158   1.00
H2       0.96130    0.04343    0.22362   1.00
C4       0.74719    0.24884    -0.02084   1.00
C4       0.74785    0.24855    0.02088   1.00
C3       0.72724    0.22057    -0.04364   1.00
C3       0.73169    0.21806    0.04384   1.00
C3       0.76802    0.27859    -0.04123   1.00
C3       0.76549    0.28038    0.04114   1.00
C2       0.74885    0.25034    -0.10512   1.00
C2       0.75115    0.24966    0.10512   1.00
C3       0.72822    0.22114    -0.08462   1.00
C3       0.73296    0.21876    0.08481   1.00
C3       0.76804    0.27909    -0.08258   1.00
C3       0.76794    0.27971    0.08238   1.00
H1       0.71131    0.19881    -0.03115   1.00
H1       0.71874    0.19434    0.03148   1.00
C5       0.78856    0.30775    -0.02020   1.00
C5       0.78089    0.31255    0.02020   1.00
H1       0.71348    0.19977    -0.09955   1.00
H1       0.72050    0.19608    0.09990   1.00
H1       0.78221    0.30123    -0.09680   1.00
H1       0.78284    0.30147    0.09632   1.00
O3       0.81377    0.33234    -0.03961   1.00
O3       0.79094    0.34679    0.03901   1.00
Si1      0.86006    0.32138    -0.04247   1.00
Si1      0.75712    0.37929    0.04721   1.00
C6       0.87343    0.35869    -0.07538   1.00
C6       0.88064    0.32925    0.00402   1.00
C6       0.86875    0.27472    -0.06253   1.00
C6       0.70874    0.36831    0.03307   1.00
C6       0.75905    0.38552    0.09802   1.00
C6       0.77252    0.42314    0.02523   1.00
C6       0.84638    0.36370    -0.11194   1.00
H2       0.86895    0.38496    -0.05791   1.00
C6       0.91621    0.36177    -0.09147   1.00
H2       0.86081    0.35085    0.01642   1.00
C6       0.88124    0.29453    0.03366   1.00
C6       0.92226    0.34788    0.00664   1.00
H2       0.84996    0.27490    -0.08831   1.00
C6       0.91099    0.26599    -0.07772   1.00
C6       0.85752    0.23730    -0.03849   1.00
C6       0.70097    0.35804    -0.01071   1.00
C6       0.68421    0.33866    0.05775   1.00
H2       0.69386    0.39606    0.03788   1.00
H2       0.74747    0.35817    0.10949   1.00
C6       0.80078    0.38959    0.11622   1.00
C6       0.73366    0.41886    0.11607   1.00
H2       0.79300    0.43554    0.04625   1.00
C6       0.79627    0.41911    -0.01336   1.00
C6       0.74119    0.45552    0.01756   1.00
H2       0.81597    0.36814    -0.10346   1.00
H2       0.84770    0.33809    -0.13090   1.00
H2       0.85486    0.38918    -0.12917   1.00
H2       0.92396    0.39238    -0.09608   1.00
H2       0.93776    0.34937    -0.07178   1.00
H2       0.91961    0.34725    -0.11964   1.00
H2       0.88677    0.30506    0.06328   1.00
H2       0.85345    0.27921    0.03468   1.00
H2       0.90418    0.27363    0.02648   1.00
H2       0.92349    0.37580    -0.00862   1.00
H2       0.93037    0.35395    0.03692   1.00
H2       0.94437    0.32839    -0.00550   1.00
H2       0.93274    0.27170    -0.05514   1.00
H2       0.91435    0.23564    -0.08708   1.00
H2       0.91787    0.28337    -0.10332   1.00
H2       0.88099    0.22808    -0.01902   1.00
H2       0.83168    0.24101    -0.02068   1.00
H2       0.85165    0.21295    -0.05828   1.00
H2       0.70703    0.32745    -0.01688   1.00
H2       0.67035    0.36313    -0.01809   1.00
H2       0.71835    0.37580    -0.03048   1.00
H2       0.65359    0.33917    0.04875   1.00
H2       0.69435    0.30878    0.05426   1.00
H2       0.68449    0.34573    0.08878   1.00
H2       0.79942    0.38661    0.14798   1.00
H2       0.82037    0.36676    0.10565   1.00
H2       0.81396    0.41782    0.10965   1.00
H2       0.70354    0.41760    0.10584   1.00
H2       0.73279    0.41621    0.14788   1.00
H2       0.74556    0.44761    0.10915   1.00
H2       0.77927    0.40553    -0.03656   1.00
H2       0.80663    0.44739    -0.02381   1.00
H2       0.82189    0.40117    -0.00834   1.00
H2       0.75513    0.48310    0.00956   1.00
H2       0.72158    0.44736    -0.00622   1.00
H2       0.72362    0.46130    0.04343   1.00
C4       0.99719    1.00116    1.27084   1.00
C4       0.99785    1.00145    1.22912   1.00
C3       0.97724    1.02943    1.29364   1.00
C3       0.98169    1.03194    1.20616   1.00
C3       1.01802    0.97141    1.29123   1.00
C3       1.01549    0.96962    1.20886   1.00
C2       0.99885    0.99966    1.35512   1.00
C2       1.00115    1.00034    1.14488   1.00
C3       0.97822    1.02886    1.33462   1.00
C3       0.98296    1.03124    1.16519   1.00
C3       1.01804    0.97091    1.33258   1.00
C3       1.01794    0.97029    1.16762   1.00
H1       0.96131    1.05119    1.28115   1.00
H1       0.96874    1.05566    1.21852   1.00
C5       1.03856    0.94225    1.27020   1.00
C5       1.03089    0.93745    1.22980   1.00
H1       0.96348    1.05023    1.34955   1.00
H1       0.97050    1.05392    1.15010   1.00
H1       1.03221    0.94877    1.34680   1.00
H1       1.03284    0.94853    1.15368   1.00
O3       1.06377    0.91766    1.28961   1.00
O3       1.04094    0.90321    1.21099   1.00
Si1      1.11006    0.92862    1.29247   1.00
Si1      1.00712    0.87071    1.20279   1.00
C6       1.12343    0.89131    1.32538   1.00
C6       1.13064    0.92075    1.24598   1.00
C6       1.11875    0.97528    1.31253   1.00
C6       0.95874    0.88169    1.21693   1.00
C6       1.00905    0.86448    1.15198   1.00
C6       1.02252    0.82686    1.22477   1.00
C6       1.09638    0.88630    1.36194   1.00
H2       1.11895    0.86504    1.30791   1.00
C6       1.16621    0.88823    1.34147   1.00
H2       1.11081    0.89915    1.23358   1.00
C6       1.13124    0.95547    1.21634   1.00
C6       1.17226    0.90212    1.24336   1.00
H2       1.09996    0.97510    1.33831   1.00
C6       1.16099    0.98401    1.32772   1.00
C6       1.10752    1.01270    1.28849   1.00
C6       0.95097    0.89196    1.26071   1.00
C6       0.93421    0.91134    1.19225   1.00
H2       0.94386    0.85394    1.21212   1.00
H2       0.99747    0.89183    1.14051   1.00
C6       1.05078    0.86041    1.13378   1.00
C6       0.98366    0.83114    1.13393   1.00
H2       1.04300    0.81446    1.20375   1.00
C6       1.04627    0.83089    1.26336   1.00
C6       0.99119    0.79448    1.23244   1.00
H2       1.06597    0.88186    1.35346   1.00
H2       1.09770    0.91191    1.38090   1.00
H2       1.10486    0.86082    1.37917   1.00
H2       1.17396    0.85762    1.34608   1.00
H2       1.18776    0.90063    1.32178   1.00
H2       1.16961    0.90275    1.36964   1.00
H2       1.13677    0.94494    1.18672   1.00
H2       1.10345    0.97079    1.21532   1.00
H2       1.15418    0.97637    1.22352   1.00
H2       1.17349    0.87420    1.25862   1.00
H2       1.18037    0.89605    1.21308   1.00
H2       1.19437    0.92161    1.25550   1.00
H2       1.18274    0.97830    1.30514   1.00
H2       1.16435    1.01436    1.33708   1.00
H2       1.16787    0.96663    1.35332   1.00
H2       1.13099    1.02192    1.26902   1.00
H2       1.08168    1.00899    1.27068   1.00
H2       1.10165    1.03705    1.30828   1.00
H2       0.95703    0.92255    1.26688   1.00
H2       0.92035    0.88687    1.26809   1.00
H2       0.96835    0.87420    1.28048   1.00
H2       0.90359    0.91083    1.20125   1.00
H2       0.94435    0.94122    1.19574   1.00
H2       0.93449    0.90427    1.16122   1.00
H2       1.04942    0.86339    1.10202   1.00
H2       1.07037    0.88324    1.14435   1.00
H2       1.06396    0.83218    1.14035   1.00
H2       0.95354    0.83240    1.14416   1.00
H2       0.98279    0.83379    1.10212   1.00
H2       0.99556    0.80239    1.14085   1.00
H2       1.02927    0.84447    1.28656   1.00
H2       1.05663    0.80261    1.27381   1.00
H2       1.07189    0.84883    1.25834   1.00
H2       1.00513    0.76690    1.24044   1.00
H2       0.97158    0.80264    1.25622   1.00
H2       0.97362    0.78870    1.20657   1.00
C4       1.00116    1.27084    0.99719   1.00
C4       1.00145    1.22912    0.99785   1.00
C3       1.02943    1.29364    0.97724   1.00
C3       1.03194    1.20616    0.98169   1.00
C3       0.97141    1.29123    1.01802   1.00
C3       0.96962    1.20886    1.01549   1.00
C2       0.99966    1.35512    0.99885   1.00
C2       1.00034    1.14488    1.00115   1.00
C3       1.02886    1.33462    0.97822   1.00
C3       1.03124    1.16519    0.98296   1.00
C3       0.97091    1.33258    1.01804   1.00
C3       0.97029    1.16762    1.01794   1.00
H1       1.05119    1.28115    0.96131   1.00
H1       1.05566    1.21852    0.96874   1.00
C5       0.94225    1.27020    1.03856   1.00
C5       0.93745    1.22980    1.03089   1.00
H1       1.05023    1.34955    0.96348   1.00
H1       1.05392    1.15010    0.97050   1.00
H1       0.94877    1.34680    1.03221   1.00
H1       0.94853    1.15368    1.03284   1.00
O3       0.91766    1.28961    1.06377   1.00
O3       0.90321    1.21099    1.04094   1.00
Si1      0.92862    1.29247    1.11006   1.00
Si1      0.87071    1.20279    1.00712   1.00
C6       0.89131    1.32538    1.12343   1.00
C6       0.92075    1.24598    1.13064   1.00
C6       0.97528    1.31253    1.11875   1.00
C6       0.88169    1.21693    0.95874   1.00
C6       0.86448    1.15198    1.00905   1.00
C6       0.82686    1.22477    1.02252   1.00
C6       0.88630    1.36194    1.09638   1.00
H2       0.86504    1.30791    1.11895   1.00
C6       0.88823    1.34147    1.16621   1.00
H2       0.89915    1.23358    1.11081   1.00
C6       0.95547    1.21634    1.13124   1.00
C6       0.90212    1.24336    1.17226   1.00
H2       0.97510    1.33831    1.09996   1.00
C6       0.98401    1.32772    1.16099   1.00
C6       1.01270    1.28849    1.10752   1.00
C6       0.89196    1.26071    0.95097   1.00
C6       0.91134    1.19225    0.93421   1.00
H2       0.85394    1.21212    0.94386   1.00
H2       0.89183    1.14051    0.99747   1.00
C6       0.86041    1.13378    1.05078   1.00
C6       0.83114    1.13393    0.98366   1.00
H2       0.81446    1.20375    1.04300   1.00
C6       0.83089    1.26336    1.04627   1.00
C6       0.79448    1.23244    0.99119   1.00
H2       0.88186    1.35346    1.06597   1.00
H2       0.91191    1.38090    1.09770   1.00
H2       0.86082    1.37917    1.10486   1.00
H2       0.85762    1.34608    1.17396   1.00
H2       0.90063    1.32178    1.18776   1.00
H2       0.90275    1.36964    1.16961   1.00
H2       0.94494    1.18672    1.13677   1.00
H2       0.97079    1.21532    1.10345   1.00
H2       0.97637    1.22352    1.15418   1.00
H2       0.87420    1.25862    1.17349   1.00
H2       0.89605    1.21308    1.18037   1.00
H2       0.92161    1.25550    1.19437   1.00
H2       0.97830    1.30514    1.18274   1.00
H2       1.01436    1.33708    1.16435   1.00
H2       0.96663    1.35332    1.16787   1.00
H2       1.02192    1.26902    1.13099   1.00
H2       1.00899    1.27068    1.08168   1.00
H2       1.03705    1.30828    1.10165   1.00
H2       0.92255    1.26688    0.95703   1.00
H2       0.88687    1.26809    0.92035   1.00
H2       0.87420    1.28048    0.96835   1.00
H2       0.91083    1.20125    0.90359   1.00
H2       0.94122    1.19574    0.94435   1.00
H2       0.90427    1.16122    0.93449   1.00
H2       0.86339    1.10202    1.04942   1.00
H2       0.88324    1.14435    1.07037   1.00
H2       0.83218    1.14035    1.06396   1.00
H2       0.83240    1.14416    0.95354   1.00
H2       0.83379    1.10212    0.98279   1.00
H2       0.80239    1.14085    0.99556   1.00
H2       0.84447    1.28656    1.02927   1.00
H2       0.80261    1.27381    1.05663   1.00
H2       0.84883    1.25834    1.07189   1.00
H2       0.76690    1.24044    1.00513   1.00
H2       0.80264    1.25622    0.97158   1.00
H2       0.78870    1.20657    0.97362   1.00
C4       0.72916    0.99719    0.99884   1.00
C4       0.77088    0.99785    0.99855   1.00
C3       0.70636    0.97724    0.97057   1.00
C3       0.79384    0.98169    0.96806   1.00
C3       0.70877    1.01802    1.02859   1.00
C3       0.79114    1.01549    1.03038   1.00
C2       0.64488    0.99885    1.00034   1.00
C2       0.85512    1.00115    0.99966   1.00
C3       0.66538    0.97822    0.97114   1.00
C3       0.83481    0.98296    0.96876   1.00
C3       0.66742    1.01804    1.02909   1.00
C3       0.83238    1.01794    1.02971   1.00
H1       0.71885    0.96131    0.94881   1.00
H1       0.78148    0.96874    0.94434   1.00
C5       0.72980    1.03856    1.05775   1.00
C5       0.77020    1.03089    1.06255   1.00
H1       0.65045    0.96348    0.94977   1.00
H1       0.84990    0.97050    0.94608   1.00
H1       0.65320    1.03221    1.05123   1.00
H1       0.84632    1.03284    1.05147   1.00
O3       0.71039    1.06377    1.08234   1.00
O3       0.78901    1.04094    1.09679   1.00
Si1      0.70753    1.11006    1.07138   1.00
Si1      0.79721    1.00712    1.12929   1.00
C6       0.67462    1.12343    1.10869   1.00
C6       0.75402    1.13064    1.07925   1.00
C6       0.68747    1.11875    1.02472   1.00
C6       0.78307    0.95874    1.11831   1.00
C6       0.84802    1.00905    1.13552   1.00
C6       0.77523    1.02252    1.17314   1.00
C6       0.63806    1.09638    1.11370   1.00
H2       0.69209    1.11895    1.13496   1.00
C6       0.65853    1.16621    1.11177   1.00
H2       0.76642    1.11081    1.10085   1.00
C6       0.78366    1.13124    1.04453   1.00
C6       0.75664    1.17226    1.09788   1.00
H2       0.66169    1.09996    1.02490   1.00
C6       0.67228    1.16099    1.01599   1.00
C6       0.71151    1.10752    0.98730   1.00
C6       0.73929    0.95097    1.10804   1.00
C6       0.80775    0.93421    1.08866   1.00
H2       0.78788    0.94386    1.14606   1.00
H2       0.85949    0.99747    1.10817   1.00
C6       0.86622    1.05078    1.13959   1.00
C6       0.86607    0.98366    1.16886   1.00
H2       0.79625    1.04300    1.18554   1.00
C6       0.73664    1.04627    1.16911   1.00
C6       0.76756    0.99119    1.20552   1.00
H2       0.64654    1.06597    1.11814   1.00
H2       0.61910    1.09770    1.08809   1.00
H2       0.62083    1.10486    1.13918   1.00
H2       0.65392    1.17396    1.14238   1.00
H2       0.67822    1.18776    1.09937   1.00
H2       0.63036    1.16961    1.09725   1.00
H2       0.81328    1.13677    1.05506   1.00
H2       0.78468    1.10345    1.02921   1.00
H2       0.77648    1.15418    1.02363   1.00
H2       0.74138    1.17349    1.12580   1.00
H2       0.78692    1.18037    1.10395   1.00
H2       0.74450    1.19437    1.07839   1.00
H2       0.69486    1.18274    1.02170   1.00
H2       0.66292    1.16435    0.98564   1.00
H2       0.64668    1.16787    1.03337   1.00
H2       0.73098    1.13099    0.97808   1.00
H2       0.72932    1.08168    0.99101   1.00
H2       0.69172    1.10165    0.96295   1.00
H2       0.73312    0.95703    1.07745   1.00
H2       0.73191    0.92035    1.11313   1.00
H2       0.71952    0.96835    1.12580   1.00
H2       0.79875    0.90359    1.08917   1.00
H2       0.80426    0.94435    1.05878   1.00
H2       0.83878    0.93449    1.09573   1.00
H2       0.89798    1.04942    1.13661   1.00
H2       0.85565    1.07037    1.11676   1.00
H2       0.85965    1.06396    1.16782   1.00
H2       0.85584    0.95354    1.16760   1.00
H2       0.89788    0.98279    1.16621   1.00
H2       0.85915    0.99556    1.19761   1.00
H2       0.71344    1.02927    1.15553   1.00
H2       0.72619    1.05663    1.19739   1.00
H2       0.74166    1.07189    1.15117   1.00
H2       0.75956    1.00513    1.23310   1.00
H2       0.74378    0.97158    1.19736   1.00
H2       0.79343    0.97362    1.21130   1.00
C4       1.27084    0.99719    1.00116   1.00
C4       1.22912    0.99785    1.00145   1.00
C3       1.29364    0.97724    1.02943   1.00
C3       1.20616    0.98169    1.03194   1.00
C3       1.29123    1.01802    0.97141   1.00
C3       1.20886    1.01549    0.96962   1.00
C2       1.35512    0.99885    0.99966   1.00
C2       1.14488    1.00115    1.00034   1.00
C3       1.33462    0.97822    1.02886   1.00
C3       1.16519    0.98296    1.03124   1.00
C3       1.33258    1.01804    0.97091   1.00
C3       1.16762    1.01794    0.97029   1.00
H1       1.28115    0.96131    1.05119   1.00
H1       1.21852    0.96874    1.05566   1.00
C5       1.27020    1.03856    0.94225   1.00
C5       1.22980    1.03089    0.93745   1.00
H1       1.34955    0.96348    1.05023   1.00
H1       1.15010    0.97050    1.05392   1.00
H1       1.34680    1.03221    0.94877   1.00
H1       1.15368    1.03284    0.94853   1.00
O3       1.28961    1.06377    0.91766   1.00
O3       1.21099    1.04094    0.90321   1.00
Si1      1.29247    1.11006    0.92862   1.00
Si1      1.20279    1.00712    0.87071   1.00
C6       1.32538    1.12343    0.89131   1.00
C6       1.24598    1.13064    0.92075   1.00
C6       1.31253    1.11875    0.97528   1.00
C6       1.21693    0.95874    0.88169   1.00
C6       1.15198    1.00905    0.86448   1.00
C6       1.22477    1.02252    0.82686   1.00
C6       1.36194    1.09638    0.88630   1.00
H2       1.30791    1.11895    0.86504   1.00
C6       1.34147    1.16621    0.88823   1.00
H2       1.23358    1.11081    0.89915   1.00
C6       1.21634    1.13124    0.95547   1.00
C6       1.24336    1.17226    0.90212   1.00
H2       1.33831    1.09996    0.97510   1.00
C6       1.32772    1.16099    0.98401   1.00
C6       1.28849    1.10752    1.01270   1.00
C6       1.26071    0.95097    0.89196   1.00
C6       1.19225    0.93421    0.91134   1.00
H2       1.21212    0.94386    0.85394   1.00
H2       1.14051    0.99747    0.89183   1.00
C6       1.13378    1.05078    0.86041   1.00
C6       1.13393    0.98366    0.83114   1.00
H2       1.20375    1.04300    0.81446   1.00
C6       1.26336    1.04627    0.83089   1.00
C6       1.23244    0.99119    0.79448   1.00
H2       1.35346    1.06597    0.88186   1.00
H2       1.38090    1.09770    0.91191   1.00
H2       1.37917    1.10486    0.86082   1.00
H2       1.34608    1.17396    0.85762   1.00
H2       1.32178    1.18776    0.90063   1.00
H2       1.36964    1.16961    0.90275   1.00
H2       1.18672    1.13677    0.94494   1.00
H2       1.21532    1.10345    0.97079   1.00
H2       1.22352    1.15418    0.97637   1.00
H2       1.25862    1.17349    0.87420   1.00
H2       1.21308    1.18037    0.89605   1.00
H2       1.25550    1.19437    0.92161   1.00
H2       1.30514    1.18274    0.97830   1.00
H2       1.33708    1.16435    1.01436   1.00
H2       1.35332    1.16787    0.96663   1.00
H2       1.26902    1.13099    1.02192   1.00
H2       1.27068    1.08168    1.00899   1.00
H2       1.30828    1.10165    1.03705   1.00
H2       1.26688    0.95703    0.92255   1.00
H2       1.26809    0.92035    0.88687   1.00
H2       1.28048    0.96835    0.87420   1.00
H2       1.20125    0.90359    0.91083   1.00
H2       1.19574    0.94435    0.94122   1.00
H2       1.16122    0.93449    0.90427   1.00
H2       1.10202    1.04942    0.86339   1.00
H2       1.14435    1.07037    0.88324   1.00
H2       1.14035    1.06396    0.83218   1.00
H2       1.14416    0.95354    0.83240   1.00
H2       1.10212    0.98279    0.83379   1.00
H2       1.14085    0.99556    0.80239   1.00
H2       1.28656    1.02927    0.84447   1.00
H2       1.27381    1.05663    0.80261   1.00
H2       1.25834    1.07189    0.84883   1.00
H2       1.24044    1.00513    0.76690   1.00
H2       1.25622    0.97158    0.80264   1.00
H2       1.20657    0.97362    0.78870   1.00
C4       0.99884    0.72916    0.99719   1.00
C4       0.99855    0.77088    0.99785   1.00
C3       0.97057    0.70636    0.97724   1.00
C3       0.96806    0.79384    0.98169   1.00
C3       1.02859    0.70877    1.01802   1.00
C3       1.03038    0.79114    1.01549   1.00
C2       1.00034    0.64488    0.99885   1.00
C2       0.99966    0.85512    1.00115   1.00
C3       0.97114    0.66538    0.97822   1.00
C3       0.96876    0.83481    0.98296   1.00
C3       1.02909    0.66742    1.01804   1.00
C3       1.02971    0.83238    1.01794   1.00
H1       0.94881    0.71885    0.96131   1.00
H1       0.94434    0.78148    0.96874   1.00
C5       1.05775    0.72980    1.03856   1.00
C5       1.06255    0.77020    1.03089   1.00
H1       0.94977    0.65045    0.96348   1.00
H1       0.94608    0.84990    0.97050   1.00
H1       1.05123    0.65320    1.03221   1.00
H1       1.05147    0.84632    1.03284   1.00
O3       1.08234    0.71039    1.06377   1.00
O3       1.09679    0.78901    1.04094   1.00
Si1      1.07138    0.70753    1.11006   1.00
Si1      1.12929    0.79721    1.00712   1.00
C6       1.10869    0.67462    1.12343   1.00
C6       1.07925    0.75402    1.13064   1.00
C6       1.02472    0.68747    1.11875   1.00
C6       1.11831    0.78307    0.95874   1.00
C6       1.13552    0.84802    1.00905   1.00
C6       1.17314    0.77523    1.02252   1.00
C6       1.11370    0.63806    1.09638   1.00
H2       1.13496    0.69209    1.11895   1.00
C6       1.11177    0.65853    1.16621   1.00
H2       1.10085    0.76642    1.11081   1.00
C6       1.04453    0.78366    1.13124   1.00
C6       1.09788    0.75664    1.17226   1.00
H2       1.02490    0.66169    1.09996   1.00
C6       1.01599    0.67228    1.16099   1.00
C6       0.98730    0.71151    1.10752   1.00
C6       1.10804    0.73929    0.95097   1.00
C6       1.08866    0.80775    0.93421   1.00
H2       1.14606    0.78788    0.94386   1.00
H2       1.10817    0.85949    0.99747   1.00
C6       1.13959    0.86622    1.05078   1.00
C6       1.16886    0.86607    0.98366   1.00
H2       1.18554    0.79625    1.04300   1.00
C6       1.16911    0.73664    1.04627   1.00
C6       1.20552    0.76756    0.99119   1.00
H2       1.11814    0.64654    1.06597   1.00
H2       1.08809    0.61910    1.09770   1.00
H2       1.13918    0.62083    1.10486   1.00
H2       1.14238    0.65392    1.17396   1.00
H2       1.09937    0.67822    1.18776   1.00
H2       1.09725    0.63036    1.16961   1.00
H2       1.05506    0.81328    1.13677   1.00
H2       1.02921    0.78468    1.10345   1.00
H2       1.02363    0.77648    1.15418   1.00
H2       1.12580    0.74138    1.17349   1.00
H2       1.10395    0.78692    1.18037   1.00
H2       1.07839    0.74450    1.19437   1.00
H2       1.02170    0.69486    1.18274   1.00
H2       0.98564    0.66292    1.16435   1.00
H2       1.03337    0.64668    1.16787   1.00
H2       0.97808    0.73098    1.13099   1.00
H2       0.99101    0.72932    1.08168   1.00
H2       0.96295    0.69172    1.10165   1.00
H2       1.07745    0.73312    0.95703   1.00
H2       1.11313    0.73191    0.92035   1.00
H2       1.12580    0.71952    0.96835   1.00
H2       1.08917    0.79875    0.90359   1.00
H2       1.05878    0.80426    0.94435   1.00
H2       1.09573    0.83878    0.93449   1.00
H2       1.13661    0.89798    1.04942   1.00
H2       1.11676    0.85565    1.07037   1.00
H2       1.16782    0.85965    1.06396   1.00
H2       1.16760    0.85584    0.95354   1.00
H2       1.16621    0.89788    0.98279   1.00
H2       1.19761    0.85915    0.99556   1.00
H2       1.15553    0.71344    1.02927   1.00
H2       1.19739    0.72619    1.05663   1.00
H2       1.15117    0.74166    1.07189   1.00
H2       1.23310    0.75956    1.00513   1.00
H2       1.19736    0.74378    0.97158   1.00
H2       1.21130    0.79343    0.97362   1.00
C4       0.99719    0.99884    0.72916   1.00
C4       0.99785    0.99855    0.77088   1.00
C3       0.97724    0.97057    0.70636   1.00
C3       0.98169    0.96806    0.79384   1.00
C3       1.01802    1.02859    0.70877   1.00
C3       1.01549    1.03038    0.79114   1.00
C2       0.99885    1.00034    0.64488   1.00
C2       1.00115    0.99966    0.85512   1.00
C3       0.97822    0.97114    0.66538   1.00
C3       0.98296    0.96876    0.83481   1.00
C3       1.01804    1.02909    0.66742   1.00
C3       1.01794    1.02971    0.83238   1.00
H1       0.96131    0.94881    0.71885   1.00
H1       0.96874    0.94434    0.78148   1.00
C5       1.03856    1.05775    0.72980   1.00
C5       1.03089    1.06255    0.77020   1.00
H1       0.96348    0.94977    0.65045   1.00
H1       0.97050    0.94608    0.84990   1.00
H1       1.03221    1.05123    0.65320   1.00
H1       1.03284    1.05147    0.84632   1.00
O3       1.06377    1.08234    0.71039   1.00
O3       1.04094    1.09679    0.78901   1.00
Si1      1.11006    1.07138    0.70753   1.00
Si1      1.00712    1.12929    0.79721   1.00
C6       1.12343    1.10869    0.67462   1.00
C6       1.13064    1.07925    0.75402   1.00
C6       1.11875    1.02472    0.68747   1.00
C6       0.95874    1.11831    0.78307   1.00
C6       1.00905    1.13552    0.84802   1.00
C6       1.02252    1.17314    0.77523   1.00
C6       1.09638    1.11370    0.63806   1.00
H2       1.11895    1.13496    0.69209   1.00
C6       1.16621    1.11177    0.65853   1.00
H2       1.11081    1.10085    0.76642   1.00
C6       1.13124    1.04453    0.78366   1.00
C6       1.17226    1.09788    0.75664   1.00
H2       1.09996    1.02490    0.66169   1.00
C6       1.16099    1.01599    0.67228   1.00
C6       1.10752    0.98730    0.71151   1.00
C6       0.95097    1.10804    0.73929   1.00
C6       0.93421    1.08866    0.80775   1.00
H2       0.94386    1.14606    0.78788   1.00
H2       0.99747    1.10817    0.85949   1.00
C6       1.05078    1.13959    0.86622   1.00
C6       0.98366    1.16886    0.86607   1.00
H2       1.04300    1.18554    0.79625   1.00
C6       1.04627    1.16911    0.73664   1.00
C6       0.99119    1.20552    0.76756   1.00
H2       1.06597    1.11814    0.64654   1.00
H2       1.09770    1.08809    0.61910   1.00
H2       1.10486    1.13918    0.62083   1.00
H2       1.17396    1.14238    0.65392   1.00
H2       1.18776    1.09937    0.67822   1.00
H2       1.16961    1.09725    0.63036   1.00
H2       1.13677    1.05506    0.81328   1.00
H2       1.10345    1.02921    0.78468   1.00
H2       1.15418    1.02363    0.77648   1.00
H2       1.17349    1.12580    0.74138   1.00
H2       1.18037    1.10395    0.78692   1.00
H2       1.19437    1.07839    0.74450   1.00
H2       1.18274    1.02170    0.69486   1.00
H2       1.16435    0.98564    0.66292   1.00
H2       1.16787    1.03337    0.64668   1.00
H2       1.13099    0.97808    0.73098   1.00
H2       1.08168    0.99101    0.72932   1.00
H2       1.10165    0.96295    0.69172   1.00
H2       0.95703    1.07745    0.73312   1.00
H2       0.92035    1.11313    0.73191   1.00
H2       0.96835    1.12580    0.71952   1.00
H2       0.90359    1.08917    0.79875   1.00
H2       0.94435    1.05878    0.80426   1.00
H2       0.93449    1.09573    0.83878   1.00
H2       1.04942    1.13661    0.89798   1.00
H2       1.07037    1.11676    0.85565   1.00
H2       1.06396    1.16782    0.85965   1.00
H2       0.95354    1.16760    0.85584   1.00
H2       0.98279    1.16621    0.89788   1.00
H2       0.99556    1.19761    0.85915   1.00
H2       1.02927    1.15553    0.71344   1.00
H2       1.05663    1.19739    0.72619   1.00
H2       1.07189    1.15117    0.74166   1.00
H2       1.00513    1.23310    0.75956   1.00
H2       0.97158    1.19736    0.74378   1.00
H2       0.97362    1.21130    0.79343   1.00
C4       0.49719    0.50116    1.27084   1.00
C4       0.49785    0.50145    1.22912   1.00
C3       0.47724    0.52943    1.29364   1.00
C3       0.48169    0.53194    1.20616   1.00
C3       0.51802    0.47141    1.29123   1.00
C3       0.51549    0.46962    1.20886   1.00
C2       0.49885    0.49966    1.35512   1.00
C2       0.50115    0.50034    1.14488   1.00
C3       0.47822    0.52886    1.33462   1.00
C3       0.48296    0.53124    1.16519   1.00
C3       0.51804    0.47091    1.33258   1.00
C3       0.51794    0.47029    1.16762   1.00
H1       0.46131    0.55119    1.28115   1.00
H1       0.46874    0.55566    1.21852   1.00
C5       0.53856    0.44225    1.27020   1.00
C5       0.53089    0.43745    1.22980   1.00
H1       0.46348    0.55023    1.34955   1.00
H1       0.47050    0.55392    1.15010   1.00
H1       0.53221    0.44877    1.34680   1.00
H1       0.53284    0.44853    1.15368   1.00
O3       0.56377    0.41766    1.28961   1.00
O3       0.54094    0.40321    1.21099   1.00
Si1      0.61006    0.42862    1.29247   1.00
Si1      0.50712    0.37071    1.20279   1.00
C6       0.62343    0.39131    1.32538   1.00
C6       0.63064    0.42075    1.24598   1.00
C6       0.61875    0.47528    1.31253   1.00
C6       0.45874    0.38169    1.21693   1.00
C6       0.50905    0.36448    1.15198   1.00
C6       0.52252    0.32686    1.22477   1.00
C6       0.59638    0.38630    1.36194   1.00
H2       0.61895    0.36504    1.30791   1.00
C6       0.66621    0.38823    1.34147   1.00
H2       0.61081    0.39915    1.23358   1.00
C6       0.63124    0.45547    1.21634   1.00
C6       0.67226    0.40212    1.24336   1.00
H2       0.59996    0.47510    1.33831   1.00
C6       0.66099    0.48401    1.32772   1.00
C6       0.60752    0.51270    1.28849   1.00
C6       0.45097    0.39196    1.26071   1.00
C6       0.43421    0.41134    1.19225   1.00
H2       0.44386    0.35394    1.21212   1.00
H2       0.49747    0.39183    1.14051   1.00
C6       0.55078    0.36041    1.13378   1.00
C6       0.48366    0.33114    1.13393   1.00
H2       0.54300    0.31446    1.20375   1.00
C6       0.54627    0.33089    1.26336   1.00
C6       0.49119    0.29448    1.23244   1.00
H2       0.56597    0.38186    1.35346   1.00
H2       0.59770    0.41191    1.38090   1.00
H2       0.60486    0.36082    1.37917   1.00
H2       0.67396    0.35762    1.34608   1.00
H2       0.68776    0.40063    1.32178   1.00
H2       0.66961    0.40275    1.36964   1.00
H2       0.63677    0.44494    1.18672   1.00
H2       0.60345    0.47079    1.21532   1.00
H2       0.65418    0.47637    1.22352   1.00
H2       0.67349    0.37420    1.25862   1.00
H2       0.68037    0.39605    1.21308   1.00
H2       0.69437    0.42161    1.25550   1.00
H2       0.68274    0.47830    1.30514   1.00
H2       0.66435    0.51436    1.33708   1.00
H2       0.66787    0.46663    1.35332   1.00
H2       0.63099    0.52192    1.26902   1.00
H2       0.58168    0.50899    1.27068   1.00
H2       0.60165    0.53705    1.30828   1.00
H2       0.45703    0.42255    1.26688   1.00
H2       0.42035    0.38687    1.26809   1.00
H2       0.46835    0.37420    1.28048   1.00
H2       0.40359    0.41083    1.20125   1.00
H2       0.44435    0.44122    1.19574   1.00
H2       0.43449    0.40427    1.16122   1.00
H2       0.54942    0.36339    1.10202   1.00
H2       0.57037    0.38324    1.14435   1.00
H2       0.56396    0.33218    1.14035   1.00
H2       0.45354    0.33240    1.14416   1.00
H2       0.48279    0.33379    1.10212   1.00
H2       0.49556    0.30239    1.14085   1.00
H2       0.52927    0.34447    1.28656   1.00
H2       0.55663    0.30261    1.27381   1.00
H2       0.57189    0.34883    1.25834   1.00
H2       0.50513    0.26690    1.24044   1.00
H2       0.47158    0.30264    1.25622   1.00
H2       0.47362    0.28870    1.20657   1.00
C4       0.50116    0.77084    0.99719   1.00
C4       0.50145    0.72912    0.99785   1.00
C3       0.52943    0.79364    0.97724   1.00
C3       0.53194    0.70616    0.98169   1.00
C3       0.47141    0.79123    1.01802   1.00
C3       0.46962    0.70886    1.01549   1.00
C2       0.49966    0.85512    0.99885   1.00
C2       0.50034    0.64488    1.00115   1.00
C3       0.52886    0.83462    0.97822   1.00
C3       0.53124    0.66519    0.98296   1.00
C3       0.47091    0.83258    1.01804   1.00
C3       0.47029    0.66762    1.01794   1.00
H1       0.55119    0.78115    0.96131   1.00
H1       0.55566    0.71852    0.96874   1.00
C5       0.44225    0.77020    1.03856   1.00
C5       0.43745    0.72980    1.03089   1.00
H1       0.55023    0.84955    0.96348   1.00
H1       0.55392    0.65010    0.97050   1.00
H1       0.44877    0.84680    1.03221   1.00
H1       0.44853    0.65368    1.03284   1.00
O3       0.41766    0.78961    1.06377   1.00
O3       0.40321    0.71099    1.04094   1.00
Si1      0.42862    0.79247    1.11006   1.00
Si1      0.37071    0.70279    1.00712   1.00
C6       0.39131    0.82538    1.12343   1.00
C6       0.42075    0.74598    1.13064   1.00
C6       0.47528    0.81253    1.11875   1.00
C6       0.38169    0.71693    0.95874   1.00
C6       0.36448    0.65198    1.00905   1.00
C6       0.32686    0.72477    1.02252   1.00
C6       0.38630    0.86194    1.09638   1.00
H2       0.36504    0.80791    1.11895   1.00
C6       0.38823    0.84147    1.16621   1.00
H2       0.39915    0.73358    1.11081   1.00
C6       0.45547    0.71634    1.13124   1.00
C6       0.40212    0.74336    1.17226   1.00
H2       0.47510    0.83831    1.09996   1.00
C6       0.48401    0.82772    1.16099   1.00
C6       0.51270    0.78849    1.10752   1.00
C6       0.39196    0.76071    0.95097   1.00
C6       0.41134    0.69225    0.93421   1.00
H2       0.35394    0.71212    0.94386   1.00
H2       0.39183    0.64051    0.99747   1.00
C6       0.36041    0.63378    1.05078   1.00
C6       0.33114    0.63393    0.98366   1.00
H2       0.31446    0.70375    1.04300   1.00
C6       0.33089    0.76336    1.04627   1.00
C6       0.29448    0.73244    0.99119   1.00
H2       0.38186    0.85346    1.06597   1.00
H2       0.41191    0.88090    1.09770   1.00
H2       0.36082    0.87917    1.10486   1.00
H2       0.35762    0.84608    1.17396   1.00
H2       0.40063    0.82178    1.18776   1.00
H2       0.40275    0.86964    1.16961   1.00
H2       0.44494    0.68672    1.13677   1.00
H2       0.47079    0.71532    1.10345   1.00
H2       0.47637    0.72352    1.15418   1.00
H2       0.37420    0.75862    1.17349   1.00
H2       0.39605    0.71308    1.18037   1.00
H2       0.42161    0.75550    1.19437   1.00
H2       0.47830    0.80514    1.18274   1.00
H2       0.51436    0.83708    1.16435   1.00
H2       0.46663    0.85332    1.16787   1.00
H2       0.52192    0.76902    1.13099   1.00
H2       0.50899    0.77068    1.08168   1.00
H2       0.53705    0.80828    1.10165   1.00
H2       0.42255    0.76688    0.95703   1.00
H2       0.38687    0.76809    0.92035   1.00
H2       0.37420    0.78048    0.96835   1.00
H2       0.41083    0.70125    0.90359   1.00
H2       0.44122    0.69574    0.94435   1.00
H2       0.40427    0.66122    0.93449   1.00
H2       0.36339    0.60202    1.04942   1.00
H2       0.38324    0.64435    1.07037   1.00
H2       0.33218    0.64035    1.06396   1.00
H2       0.33240    0.64416    0.95354   1.00
H2       0.33379    0.60212    0.98279   1.00
H2       0.30239    0.64085    0.99556   1.00
H2       0.34447    0.78656    1.02927   1.00
H2       0.30261    0.77381    1.05663   1.00
H2       0.34883    0.75834    1.07189   1.00
H2       0.26690    0.74044    1.00513   1.00
H2       0.30264    0.75622    0.97158   1.00
H2       0.28870    0.70657    0.97362   1.00
C4       0.22916    0.49719    0.99884   1.00
C4       0.27088    0.49785    0.99855   1.00
C3       0.20636    0.47724    0.97057   1.00
C3       0.29384    0.48169    0.96806   1.00
C3       0.20877    0.51802    1.02859   1.00
C3       0.29114    0.51549    1.03038   1.00
C2       0.14488    0.49885    1.00034   1.00
C2       0.35512    0.50115    0.99966   1.00
C3       0.16538    0.47822    0.97114   1.00
C3       0.33481    0.48296    0.96876   1.00
C3       0.16742    0.51804    1.02909   1.00
C3       0.33238    0.51794    1.02971   1.00
H1       0.21885    0.46131    0.94881   1.00
H1       0.28148    0.46874    0.94434   1.00
C5       0.22980    0.53856    1.05775   1.00
C5       0.27020    0.53089    1.06255   1.00
H1       0.15045    0.46348    0.94977   1.00
H1       0.34990    0.47050    0.94608   1.00
H1       0.15320    0.53221    1.05123   1.00
H1       0.34632    0.53284    1.05147   1.00
O3       0.21039    0.56377    1.08234   1.00
O3       0.28901    0.54094    1.09679   1.00
Si1      0.20753    0.61006    1.07138   1.00
Si1      0.29721    0.50712    1.12929   1.00
C6       0.17462    0.62343    1.10869   1.00
C6       0.25402    0.63064    1.07925   1.00
C6       0.18747    0.61875    1.02472   1.00
C6       0.28307    0.45874    1.11831   1.00
C6       0.34802    0.50905    1.13552   1.00
C6       0.27523    0.52252    1.17314   1.00
C6       0.13806    0.59638    1.11370   1.00
H2       0.19209    0.61895    1.13496   1.00
C6       0.15853    0.66621    1.11177   1.00
H2       0.26642    0.61081    1.10085   1.00
C6       0.28366    0.63124    1.04453   1.00
C6       0.25664    0.67226    1.09788   1.00
H2       0.16169    0.59996    1.02490   1.00
C6       0.17228    0.66099    1.01599   1.00
C6       0.21151    0.60752    0.98730   1.00
C6       0.23929    0.45097    1.10804   1.00
C6       0.30775    0.43421    1.08866   1.00
H2       0.28788    0.44386    1.14606   1.00
H2       0.35949    0.49747    1.10817   1.00
C6       0.36622    0.55078    1.13959   1.00
C6       0.36607    0.48366    1.16886   1.00
H2       0.29625    0.54300    1.18554   1.00
C6       0.23664    0.54627    1.16911   1.00
C6       0.26756    0.49119    1.20552   1.00
H2       0.14654    0.56597    1.11814   1.00
H2       0.11910    0.59770    1.08809   1.00
H2       0.12083    0.60486    1.13918   1.00
H2       0.15392    0.67396    1.14238   1.00
H2       0.17822    0.68776    1.09937   1.00
H2       0.13036    0.66961    1.09725   1.00
H2       0.31328    0.63677    1.05506   1.00
H2       0.28468    0.60345    1.02921   1.00
H2       0.27648    0.65418    1.02363   1.00
H2       0.24138    0.67349    1.12580   1.00
H2       0.28692    0.68037    1.10395   1.00
H2       0.24450    0.69437    1.07839   1.00
H2       0.19486    0.68274    1.02170   1.00
H2       0.16292    0.66435    0.98564   1.00
H2       0.14668    0.66787    1.03337   1.00
H2       0.23098    0.63099    0.97808   1.00
H2       0.22932    0.58168    0.99101   1.00
H2       0.19172    0.60165    0.96295   1.00
H2       0.23312    0.45703    1.07745   1.00
H2       0.23191    0.42035    1.11313   1.00
H2       0.21952    0.46835    1.12580   1.00
H2       0.29875    0.40359    1.08917   1.00
H2       0.30426    0.44435    1.05878   1.00
H2       0.33878    0.43449    1.09573   1.00
H2       0.39798    0.54942    1.13661   1.00
H2       0.35565    0.57037    1.11676   1.00
H2       0.35965    0.56396    1.16782   1.00
H2       0.35584    0.45354    1.16760   1.00
H2       0.39788    0.48279    1.16621   1.00
H2       0.35915    0.49556    1.19761   1.00
H2       0.21344    0.52927    1.15553   1.00
H2       0.22619    0.55663    1.19739   1.00
H2       0.24166    0.57189    1.15117   1.00
H2       0.25956    0.50513    1.23310   1.00
H2       0.24378    0.47158    1.19736   1.00
H2       0.29343    0.47362    1.21130   1.00
C4       0.77084    0.49719    1.00116   1.00
C4       0.72912    0.49785    1.00145   1.00
C3       0.79364    0.47724    1.02943   1.00
C3       0.70616    0.48169    1.03194   1.00
C3       0.79123    0.51802    0.97141   1.00
C3       0.70886    0.51549    0.96962   1.00
C2       0.85512    0.49885    0.99966   1.00
C2       0.64488    0.50115    1.00034   1.00
C3       0.83462    0.47822    1.02886   1.00
C3       0.66519    0.48296    1.03124   1.00
C3       0.83258    0.51804    0.97091   1.00
C3       0.66762    0.51794    0.97029   1.00
H1       0.78115    0.46131    1.05119   1.00
H1       0.71852    0.46874    1.05566   1.00
C5       0.77020    0.53856    0.94225   1.00
C5       0.72980    0.53089    0.93745   1.00
H1       0.84955    0.46348    1.05023   1.00
H1       0.65010    0.47050    1.05392   1.00
H1       0.84680    0.53221    0.94877   1.00
H1       0.65368    0.53284    0.94853   1.00
O3       0.78961    0.56377    0.91766   1.00
O3       0.71099    0.54094    0.90321   1.00
Si1      0.79247    0.61006    0.92862   1.00
Si1      0.70279    0.50712    0.87071   1.00
C6       0.82538    0.62343    0.89131   1.00
C6       0.74598    0.63064    0.92075   1.00
C6       0.81253    0.61875    0.97528   1.00
C6       0.71693    0.45874    0.88169   1.00
C6       0.65198    0.50905    0.86448   1.00
C6       0.72477    0.52252    0.82686   1.00
C6       0.86194    0.59638    0.88630   1.00
H2       0.80791    0.61895    0.86504   1.00
C6       0.84147    0.66621    0.88823   1.00
H2       0.73358    0.61081    0.89915   1.00
C6       0.71634    0.63124    0.95547   1.00
C6       0.74336    0.67226    0.90212   1.00
H2       0.83831    0.59996    0.97510   1.00
C6       0.82772    0.66099    0.98401   1.00
C6       0.78849    0.60752    1.01270   1.00
C6       0.76071    0.45097    0.89196   1.00
C6       0.69225    0.43421    0.91134   1.00
H2       0.71212    0.44386    0.85394   1.00
H2       0.64051    0.49747    0.89183   1.00
C6       0.63378    0.55078    0.86041   1.00
C6       0.63393    0.48366    0.83114   1.00
H2       0.70375    0.54300    0.81446   1.00
C6       0.76336    0.54627    0.83089   1.00
C6       0.73244    0.49119    0.79448   1.00
H2       0.85346    0.56597    0.88186   1.00
H2       0.88090    0.59770    0.91191   1.00
H2       0.87917    0.60486    0.86082   1.00
H2       0.84608    0.67396    0.85762   1.00
H2       0.82178    0.68776    0.90063   1.00
H2       0.86964    0.66961    0.90275   1.00
H2       0.68672    0.63677    0.94494   1.00
H2       0.71532    0.60345    0.97079   1.00
H2       0.72352    0.65418    0.97637   1.00
H2       0.75862    0.67349    0.87420   1.00
H2       0.71308    0.68037    0.89605   1.00
H2       0.75550    0.69437    0.92161   1.00
H2       0.80514    0.68274    0.97830   1.00
H2       0.83708    0.66435    1.01436   1.00
H2       0.85332    0.66787    0.96663   1.00
H2       0.76902    0.63099    1.02192   1.00
H2       0.77068    0.58168    1.00899   1.00
H2       0.80828    0.60165    1.03705   1.00
H2       0.76688    0.45703    0.92255   1.00
H2       0.76809    0.42035    0.88687   1.00
H2       0.78048    0.46835    0.87420   1.00
H2       0.70125    0.40359    0.91083   1.00
H2       0.69574    0.44435    0.94122   1.00
H2       0.66122    0.43449    0.90427   1.00
H2       0.60202    0.54942    0.86339   1.00
H2       0.64435    0.57037    0.88324   1.00
H2       0.64035    0.56396    0.83218   1.00
H2       0.64416    0.45354    0.83240   1.00
H2       0.60212    0.48279    0.83379   1.00
H2       0.64085    0.49556    0.80239   1.00
H2       0.78656    0.52927    0.84447   1.00
H2       0.77381    0.55663    0.80261   1.00
H2       0.75834    0.57189    0.84883   1.00
H2       0.74044    0.50513    0.76690   1.00
H2       0.75622    0.47158    0.80264   1.00
H2       0.70657    0.47362    0.78870   1.00
C4       0.49884    0.22916    0.99719   1.00
C4       0.49855    0.27088    0.99785   1.00
C3       0.47057    0.20636    0.97724   1.00
C3       0.46806    0.29384    0.98169   1.00
C3       0.52859    0.20877    1.01802   1.00
C3       0.53038    0.29114    1.01549   1.00
C2       0.50034    0.14488    0.99885   1.00
C2       0.49966    0.35512    1.00115   1.00
C3       0.47114    0.16538    0.97822   1.00
C3       0.46876    0.33481    0.98296   1.00
C3       0.52909    0.16742    1.01804   1.00
C3       0.52971    0.33238    1.01794   1.00
H1       0.44881    0.21885    0.96131   1.00
H1       0.44434    0.28148    0.96874   1.00
C5       0.55775    0.22980    1.03856   1.00
C5       0.56255    0.27020    1.03089   1.00
H1       0.44977    0.15045    0.96348   1.00
H1       0.44608    0.34990    0.97050   1.00
H1       0.55123    0.15320    1.03221   1.00
H1       0.55147    0.34632    1.03284   1.00
O3       0.58234    0.21039    1.06377   1.00
O3       0.59679    0.28901    1.04094   1.00
Si1      0.57138    0.20753    1.11006   1.00
Si1      0.62929    0.29721    1.00712   1.00
C6       0.60869    0.17462    1.12343   1.00
C6       0.57925    0.25402    1.13064   1.00
C6       0.52472    0.18747    1.11875   1.00
C6       0.61831    0.28307    0.95874   1.00
C6       0.63552    0.34802    1.00905   1.00
C6       0.67314    0.27523    1.02252   1.00
C6       0.61370    0.13806    1.09638   1.00
H2       0.63496    0.19209    1.11895   1.00
C6       0.61177    0.15853    1.16621   1.00
H2       0.60085    0.26642    1.11081   1.00
C6       0.54453    0.28366    1.13124   1.00
C6       0.59788    0.25664    1.17226   1.00
H2       0.52490    0.16169    1.09996   1.00
C6       0.51599    0.17228    1.16099   1.00
C6       0.48730    0.21151    1.10752   1.00
C6       0.60804    0.23929    0.95097   1.00
C6       0.58866    0.30775    0.93421   1.00
H2       0.64606    0.28788    0.94386   1.00
H2       0.60817    0.35949    0.99747   1.00
C6       0.63959    0.36622    1.05078   1.00
C6       0.66886    0.36607    0.98366   1.00
H2       0.68554    0.29625    1.04300   1.00
C6       0.66911    0.23664    1.04627   1.00
C6       0.70552    0.26756    0.99119   1.00
H2       0.61814    0.14654    1.06597   1.00
H2       0.58809    0.11910    1.09770   1.00
H2       0.63918    0.12083    1.10486   1.00
H2       0.64238    0.15392    1.17396   1.00
H2       0.59937    0.17822    1.18776   1.00
H2       0.59725    0.13036    1.16961   1.00
H2       0.55506    0.31328    1.13677   1.00
H2       0.52921    0.28468    1.10345   1.00
H2       0.52363    0.27648    1.15418   1.00
H2       0.62580    0.24138    1.17349   1.00
H2       0.60395    0.28692    1.18037   1.00
H2       0.57839    0.24450    1.19437   1.00
H2       0.52170    0.19486    1.18274   1.00
H2       0.48564    0.16292    1.16435   1.00
H2       0.53337    0.14668    1.16787   1.00
H2       0.47808    0.23098    1.13099   1.00
H2       0.49101    0.22932    1.08168   1.00
H2       0.46295    0.19172    1.10165   1.00
H2       0.57745    0.23312    0.95703   1.00
H2       0.61313    0.23191    0.92035   1.00
H2       0.62580    0.21952    0.96835   1.00
H2       0.58917    0.29875    0.90359   1.00
H2       0.55878    0.30426    0.94435   1.00
H2       0.59573    0.33878    0.93449   1.00
H2       0.63661    0.39798    1.04942   1.00
H2       0.61676    0.35565    1.07037   1.00
H2       0.66782    0.35965    1.06396   1.00
H2       0.66760    0.35584    0.95354   1.00
H2       0.66621    0.39788    0.98279   1.00
H2       0.69761    0.35915    0.99556   1.00
H2       0.65553    0.21344    1.02927   1.00
H2       0.69739    0.22619    1.05663   1.00
H2       0.65117    0.24166    1.07189   1.00
H2       0.73310    0.25956    1.00513   1.00
H2       0.69736    0.24378    0.97158   1.00
H2       0.71130    0.29343    0.97362   1.00
C4       0.49719    0.49884    0.72916   1.00
C4       0.49785    0.49855    0.77088   1.00
C3       0.47724    0.47057    0.70636   1.00
C3       0.48169    0.46806    0.79384   1.00
C3       0.51802    0.52859    0.70877   1.00
C3       0.51549    0.53038    0.79114   1.00
C2       0.49885    0.50034    0.64488   1.00
C2       0.50115    0.49966    0.85512   1.00
C3       0.47822    0.47114    0.66538   1.00
C3       0.48296    0.46876    0.83481   1.00
C3       0.51804    0.52909    0.66742   1.00
C3       0.51794    0.52971    0.83238   1.00
H1       0.46131    0.44881    0.71885   1.00
H1       0.46874    0.44434    0.78148   1.00
C5       0.53856    0.55775    0.72980   1.00
C5       0.53089    0.56255    0.77020   1.00
H1       0.46348    0.44977    0.65045   1.00
H1       0.47050    0.44608    0.84990   1.00
H1       0.53221    0.55123    0.65320   1.00
H1       0.53284    0.55147    0.84632   1.00
O3       0.56377    0.58234    0.71039   1.00
O3       0.54094    0.59679    0.78901   1.00
Si1      0.61006    0.57138    0.70753   1.00
Si1      0.50712    0.62929    0.79721   1.00
C6       0.62343    0.60869    0.67462   1.00
C6       0.63064    0.57925    0.75402   1.00
C6       0.61875    0.52472    0.68747   1.00
C6       0.45874    0.61831    0.78307   1.00
C6       0.50905    0.63552    0.84802   1.00
C6       0.52252    0.67314    0.77523   1.00
C6       0.59638    0.61370    0.63806   1.00
H2       0.61895    0.63496    0.69209   1.00
C6       0.66621    0.61177    0.65853   1.00
H2       0.61081    0.60085    0.76642   1.00
C6       0.63124    0.54453    0.78366   1.00
C6       0.67226    0.59788    0.75664   1.00
H2       0.59996    0.52490    0.66169   1.00
C6       0.66099    0.51599    0.67228   1.00
C6       0.60752    0.48730    0.71151   1.00
C6       0.45097    0.60804    0.73929   1.00
C6       0.43421    0.58866    0.80775   1.00
H2       0.44386    0.64606    0.78788   1.00
H2       0.49747    0.60817    0.85949   1.00
C6       0.55078    0.63959    0.86622   1.00
C6       0.48366    0.66886    0.86607   1.00
H2       0.54300    0.68554    0.79625   1.00
C6       0.54627    0.66911    0.73664   1.00
C6       0.49119    0.70552    0.76756   1.00
H2       0.56597    0.61814    0.64654   1.00
H2       0.59770    0.58809    0.61910   1.00
H2       0.60486    0.63918    0.62083   1.00
H2       0.67396    0.64238    0.65392   1.00
H2       0.68776    0.59937    0.67822   1.00
H2       0.66961    0.59725    0.63036   1.00
H2       0.63677    0.55506    0.81328   1.00
H2       0.60345    0.52921    0.78468   1.00
H2       0.65418    0.52363    0.77648   1.00
H2       0.67349    0.62580    0.74138   1.00
H2       0.68037    0.60395    0.78692   1.00
H2       0.69437    0.57839    0.74450   1.00
H2       0.68274    0.52170    0.69486   1.00
H2       0.66435    0.48564    0.66292   1.00
H2       0.66787    0.53337    0.64668   1.00
H2       0.63099    0.47808    0.73098   1.00
H2       0.58168    0.49101    0.72932   1.00
H2       0.60165    0.46295    0.69172   1.00
H2       0.45703    0.57745    0.73312   1.00
H2       0.42035    0.61313    0.73191   1.00
H2       0.46835    0.62580    0.71952   1.00
H2       0.40359    0.58917    0.79875   1.00
H2       0.44435    0.55878    0.80426   1.00
H2       0.43449    0.59573    0.83878   1.00
H2       0.54942    0.63661    0.89798   1.00
H2       0.57037    0.61676    0.85565   1.00
H2       0.56396    0.66782    0.85965   1.00
H2       0.45354    0.66760    0.85584   1.00
H2       0.48279    0.66621    0.89788   1.00
H2       0.49556    0.69761    0.85915   1.00
H2       0.52927    0.65553    0.71344   1.00
H2       0.55663    0.69739    0.72619   1.00
H2       0.57189    0.65117    0.74166   1.00
H2       0.50513    0.73310    0.75956   1.00
H2       0.47158    0.69736    0.74378   1.00
H2       0.47362    0.71130    0.79343   1.00
C4       0.49719    1.00116    0.77084   1.00
C4       0.49785    1.00145    0.72912   1.00
C3       0.47724    1.02943    0.79364   1.00
C3       0.48169    1.03194    0.70616   1.00
C3       0.51802    0.97141    0.79123   1.00
C3       0.51549    0.96962    0.70886   1.00
C2       0.49885    0.99966    0.85512   1.00
C2       0.50115    1.00034    0.64488   1.00
C3       0.47822    1.02886    0.83462   1.00
C3       0.48296    1.03124    0.66519   1.00
C3       0.51804    0.97091    0.83258   1.00
C3       0.51794    0.97029    0.66762   1.00
H1       0.46131    1.05119    0.78115   1.00
H1       0.46874    1.05566    0.71852   1.00
C5       0.53856    0.94225    0.77020   1.00
C5       0.53089    0.93745    0.72980   1.00
H1       0.46348    1.05023    0.84955   1.00
H1       0.47050    1.05392    0.65010   1.00
H1       0.53221    0.94877    0.84680   1.00
H1       0.53284    0.94853    0.65368   1.00
O3       0.56377    0.91766    0.78961   1.00
O3       0.54094    0.90321    0.71099   1.00
Si1      0.61006    0.92862    0.79247   1.00
Si1      0.50712    0.87071    0.70279   1.00
C6       0.62343    0.89131    0.82538   1.00
C6       0.63064    0.92075    0.74598   1.00
C6       0.61875    0.97528    0.81253   1.00
C6       0.45874    0.88169    0.71693   1.00
C6       0.50905    0.86448    0.65198   1.00
C6       0.52252    0.82686    0.72477   1.00
C6       0.59638    0.88630    0.86194   1.00
H2       0.61895    0.86504    0.80791   1.00
C6       0.66621    0.88823    0.84147   1.00
H2       0.61081    0.89915    0.73358   1.00
C6       0.63124    0.95547    0.71634   1.00
C6       0.67226    0.90212    0.74336   1.00
H2       0.59996    0.97510    0.83831   1.00
C6       0.66099    0.98401    0.82772   1.00
C6       0.60752    1.01270    0.78849   1.00
C6       0.45097    0.89196    0.76071   1.00
C6       0.43421    0.91134    0.69225   1.00
H2       0.44386    0.85394    0.71212   1.00
H2       0.49747    0.89183    0.64051   1.00
C6       0.55078    0.86041    0.63378   1.00
C6       0.48366    0.83114    0.63393   1.00
H2       0.54300    0.81446    0.70375   1.00
C6       0.54627    0.83089    0.76336   1.00
C6       0.49119    0.79448    0.73244   1.00
H2       0.56597    0.88186    0.85346   1.00
H2       0.59770    0.91191    0.88090   1.00
H2       0.60486    0.86082    0.87917   1.00
H2       0.67396    0.85762    0.84608   1.00
H2       0.68776    0.90063    0.82178   1.00
H2       0.66961    0.90275    0.86964   1.00
H2       0.63677    0.94494    0.68672   1.00
H2       0.60345    0.97079    0.71532   1.00
H2       0.65418    0.97637    0.72352   1.00
H2       0.67349    0.87420    0.75862   1.00
H2       0.68037    0.89605    0.71308   1.00
H2       0.69437    0.92161    0.75550   1.00
H2       0.68274    0.97830    0.80514   1.00
H2       0.66435    1.01436    0.83708   1.00
H2       0.66787    0.96663    0.85332   1.00
H2       0.63099    1.02192    0.76902   1.00
H2       0.58168    1.00899    0.77068   1.00
H2       0.60165    1.03705    0.80828   1.00
H2       0.45703    0.92255    0.76688   1.00
H2       0.42035    0.88687    0.76809   1.00
H2       0.46835    0.87420    0.78048   1.00
H2       0.40359    0.91083    0.70125   1.00
H2       0.44435    0.94122    0.69574   1.00
H2       0.43449    0.90427    0.66122   1.00
H2       0.54942    0.86339    0.60202   1.00
H2       0.57037    0.88324    0.64435   1.00
H2       0.56396    0.83218    0.64035   1.00
H2       0.45354    0.83240    0.64416   1.00
H2       0.48279    0.83379    0.60212   1.00
H2       0.49556    0.80239    0.64085   1.00
H2       0.52927    0.84447    0.78656   1.00
H2       0.55663    0.80261    0.77381   1.00
H2       0.57189    0.84883    0.75834   1.00
H2       0.50513    0.76690    0.74044   1.00
H2       0.47158    0.80264    0.75622   1.00
H2       0.47362    0.78870    0.70657   1.00
C4       0.50116    1.27084    0.49719   1.00
C4       0.50145    1.22912    0.49785   1.00
C3       0.52943    1.29364    0.47724   1.00
C3       0.53194    1.20616    0.48169   1.00
C3       0.47141    1.29123    0.51802   1.00
C3       0.46962    1.20886    0.51549   1.00
C2       0.49966    1.35512    0.49885   1.00
C2       0.50034    1.14488    0.50115   1.00
C3       0.52886    1.33462    0.47822   1.00
C3       0.53124    1.16519    0.48296   1.00
C3       0.47091    1.33258    0.51804   1.00
C3       0.47029    1.16762    0.51794   1.00
H1       0.55119    1.28115    0.46131   1.00
H1       0.55566    1.21852    0.46874   1.00
C5       0.44225    1.27020    0.53856   1.00
C5       0.43745    1.22980    0.53089   1.00
H1       0.55023    1.34955    0.46348   1.00
H1       0.55392    1.15010    0.47050   1.00
H1       0.44877    1.34680    0.53221   1.00
H1       0.44853    1.15368    0.53284   1.00
O3       0.41766    1.28961    0.56377   1.00
O3       0.40321    1.21099    0.54094   1.00
Si1      0.42862    1.29247    0.61006   1.00
Si1      0.37071    1.20279    0.50712   1.00
C6       0.39131    1.32538    0.62343   1.00
C6       0.42075    1.24598    0.63064   1.00
C6       0.47528    1.31253    0.61875   1.00
C6       0.38169    1.21693    0.45874   1.00
C6       0.36448    1.15198    0.50905   1.00
C6       0.32686    1.22477    0.52252   1.00
C6       0.38630    1.36194    0.59638   1.00
H2       0.36504    1.30791    0.61895   1.00
C6       0.38823    1.34147    0.66621   1.00
H2       0.39915    1.23358    0.61081   1.00
C6       0.45547    1.21634    0.63124   1.00
C6       0.40212    1.24336    0.67226   1.00
H2       0.47510    1.33831    0.59996   1.00
C6       0.48401    1.32772    0.66099   1.00
C6       0.51270    1.28849    0.60752   1.00
C6       0.39196    1.26071    0.45097   1.00
C6       0.41134    1.19225    0.43421   1.00
H2       0.35394    1.21212    0.44386   1.00
H2       0.39183    1.14051    0.49747   1.00
C6       0.36041    1.13378    0.55078   1.00
C6       0.33114    1.13393    0.48366   1.00
H2       0.31446    1.20375    0.54300   1.00
C6       0.33089    1.26336    0.54627   1.00
C6       0.29448    1.23244    0.49119   1.00
H2       0.38186    1.35346    0.56597   1.00
H2       0.41191    1.38090    0.59770   1.00
H2       0.36082    1.37917    0.60486   1.00
H2       0.35762    1.34608    0.67396   1.00
H2       0.40063    1.32178    0.68776   1.00
H2       0.40275    1.36964    0.66961   1.00
H2       0.44494    1.18672    0.63677   1.00
H2       0.47079    1.21532    0.60345   1.00
H2       0.47637    1.22352    0.65418   1.00
H2       0.37420    1.25862    0.67349   1.00
H2       0.39605    1.21308    0.68037   1.00
H2       0.42161    1.25550    0.69437   1.00
H2       0.47830    1.30514    0.68274   1.00
H2       0.51436    1.33708    0.66435   1.00
H2       0.46663    1.35332    0.66787   1.00
H2       0.52192    1.26902    0.63099   1.00
H2       0.50899    1.27068    0.58168   1.00
H2       0.53705    1.30828    0.60165   1.00
H2       0.42255    1.26688    0.45703   1.00
H2       0.38687    1.26809    0.42035   1.00
H2       0.37420    1.28048    0.46835   1.00
H2       0.41083    1.20125    0.40359   1.00
H2       0.44122    1.19574    0.44435   1.00
H2       0.40427    1.16122    0.43449   1.00
H2       0.36339    1.10202    0.54942   1.00
H2       0.38324    1.14435    0.57037   1.00
H2       0.33218    1.14035    0.56396   1.00
H2       0.33240    1.14416    0.45354   1.00
H2       0.33379    1.10212    0.48279   1.00
H2       0.30239    1.14085    0.49556   1.00
H2       0.34447    1.28656    0.52927   1.00
H2       0.30261    1.27381    0.55663   1.00
H2       0.34883    1.25834    0.57189   1.00
H2       0.26690    1.24044    0.50513   1.00
H2       0.30264    1.25622    0.47158   1.00
H2       0.28870    1.20657    0.47362   1.00
C4       0.22916    0.99719    0.49884   1.00
C4       0.27088    0.99785    0.49855   1.00
C3       0.20636    0.97724    0.47057   1.00
C3       0.29384    0.98169    0.46806   1.00
C3       0.20877    1.01802    0.52859   1.00
C3       0.29114    1.01549    0.53038   1.00
C2       0.14488    0.99885    0.50034   1.00
C2       0.35512    1.00115    0.49966   1.00
C3       0.16538    0.97822    0.47114   1.00
C3       0.33481    0.98296    0.46876   1.00
C3       0.16742    1.01804    0.52909   1.00
C3       0.33238    1.01794    0.52971   1.00
H1       0.21885    0.96131    0.44881   1.00
H1       0.28148    0.96874    0.44434   1.00
C5       0.22980    1.03856    0.55775   1.00
C5       0.27020    1.03089    0.56255   1.00
H1       0.15045    0.96348    0.44977   1.00
H1       0.34990    0.97050    0.44608   1.00
H1       0.15320    1.03221    0.55123   1.00
H1       0.34632    1.03284    0.55147   1.00
O3       0.21039    1.06377    0.58234   1.00
O3       0.28901    1.04094    0.59679   1.00
Si1      0.20753    1.11006    0.57138   1.00
Si1      0.29721    1.00712    0.62929   1.00
C6       0.17462    1.12343    0.60869   1.00
C6       0.25402    1.13064    0.57925   1.00
C6       0.18747    1.11875    0.52472   1.00
C6       0.28307    0.95874    0.61831   1.00
C6       0.34802    1.00905    0.63552   1.00
C6       0.27523    1.02252    0.67314   1.00
C6       0.13806    1.09638    0.61370   1.00
H2       0.19209    1.11895    0.63496   1.00
C6       0.15853    1.16621    0.61177   1.00
H2       0.26642    1.11081    0.60085   1.00
C6       0.28366    1.13124    0.54453   1.00
C6       0.25664    1.17226    0.59788   1.00
H2       0.16169    1.09996    0.52490   1.00
C6       0.17228    1.16099    0.51599   1.00
C6       0.21151    1.10752    0.48730   1.00
C6       0.23929    0.95097    0.60804   1.00
C6       0.30775    0.93421    0.58866   1.00
H2       0.28788    0.94386    0.64606   1.00
H2       0.35949    0.99747    0.60817   1.00
C6       0.36622    1.05078    0.63959   1.00
C6       0.36607    0.98366    0.66886   1.00
H2       0.29625    1.04300    0.68554   1.00
C6       0.23664    1.04627    0.66911   1.00
C6       0.26756    0.99119    0.70552   1.00
H2       0.14654    1.06597    0.61814   1.00
H2       0.11910    1.09770    0.58809   1.00
H2       0.12083    1.10486    0.63918   1.00
H2       0.15392    1.17396    0.64238   1.00
H2       0.17822    1.18776    0.59937   1.00
H2       0.13036    1.16961    0.59725   1.00
H2       0.31328    1.13677    0.55506   1.00
H2       0.28468    1.10345    0.52921   1.00
H2       0.27648    1.15418    0.52363   1.00
H2       0.24138    1.17349    0.62580   1.00
H2       0.28692    1.18037    0.60395   1.00
H2       0.24450    1.19437    0.57839   1.00
H2       0.19486    1.18274    0.52170   1.00
H2       0.16292    1.16435    0.48564   1.00
H2       0.14668    1.16787    0.53337   1.00
H2       0.23098    1.13099    0.47808   1.00
H2       0.22932    1.08168    0.49101   1.00
H2       0.19172    1.10165    0.46295   1.00
H2       0.23312    0.95703    0.57745   1.00
H2       0.23191    0.92035    0.61313   1.00
H2       0.21952    0.96835    0.62580   1.00
H2       0.29875    0.90359    0.58917   1.00
H2       0.30426    0.94435    0.55878   1.00
H2       0.33878    0.93449    0.59573   1.00
H2       0.39798    1.04942    0.63661   1.00
H2       0.35565    1.07037    0.61676   1.00
H2       0.35965    1.06396    0.66782   1.00
H2       0.35584    0.95354    0.66760   1.00
H2       0.39788    0.98279    0.66621   1.00
H2       0.35915    0.99556    0.69761   1.00
H2       0.21344    1.02927    0.65553   1.00
H2       0.22619    1.05663    0.69739   1.00
H2       0.24166    1.07189    0.65117   1.00
H2       0.25956    1.00513    0.73310   1.00
H2       0.24378    0.97158    0.69736   1.00
H2       0.29343    0.97362    0.71130   1.00
C4       0.77084    0.99719    0.50116   1.00
C4       0.72912    0.99785    0.50145   1.00
C3       0.79364    0.97724    0.52943   1.00
C3       0.70616    0.98169    0.53194   1.00
C3       0.79123    1.01802    0.47141   1.00
C3       0.70886    1.01549    0.46962   1.00
C2       0.85512    0.99885    0.49966   1.00
C2       0.64488    1.00115    0.50034   1.00
C3       0.83462    0.97822    0.52886   1.00
C3       0.66519    0.98296    0.53124   1.00
C3       0.83258    1.01804    0.47091   1.00
C3       0.66762    1.01794    0.47029   1.00
H1       0.78115    0.96131    0.55119   1.00
H1       0.71852    0.96874    0.55566   1.00
C5       0.77020    1.03856    0.44225   1.00
C5       0.72980    1.03089    0.43745   1.00
H1       0.84955    0.96348    0.55023   1.00
H1       0.65010    0.97050    0.55392   1.00
H1       0.84680    1.03221    0.44877   1.00
H1       0.65368    1.03284    0.44853   1.00
O3       0.78961    1.06377    0.41766   1.00
O3       0.71099    1.04094    0.40321   1.00
Si1      0.79247    1.11006    0.42862   1.00
Si1      0.70279    1.00712    0.37071   1.00
C6       0.82538    1.12343    0.39131   1.00
C6       0.74598    1.13064    0.42075   1.00
C6       0.81253    1.11875    0.47528   1.00
C6       0.71693    0.95874    0.38169   1.00
C6       0.65198    1.00905    0.36448   1.00
C6       0.72477    1.02252    0.32686   1.00
C6       0.86194    1.09638    0.38630   1.00
H2       0.80791    1.11895    0.36504   1.00
C6       0.84147    1.16621    0.38823   1.00
H2       0.73358    1.11081    0.39915   1.00
C6       0.71634    1.13124    0.45547   1.00
C6       0.74336    1.17226    0.40212   1.00
H2       0.83831    1.09996    0.47510   1.00
C6       0.82772    1.16099    0.48401   1.00
C6       0.78849    1.10752    0.51270   1.00
C6       0.76071    0.95097    0.39196   1.00
C6       0.69225    0.93421    0.41134   1.00
H2       0.71212    0.94386    0.35394   1.00
H2       0.64051    0.99747    0.39183   1.00
C6       0.63378    1.05078    0.36041   1.00
C6       0.63393    0.98366    0.33114   1.00
H2       0.70375    1.04300    0.31446   1.00
C6       0.76336    1.04627    0.33089   1.00
C6       0.73244    0.99119    0.29448   1.00
H2       0.85346    1.06597    0.38186   1.00
H2       0.88090    1.09770    0.41191   1.00
H2       0.87917    1.10486    0.36082   1.00
H2       0.84608    1.17396    0.35762   1.00
H2       0.82178    1.18776    0.40063   1.00
H2       0.86964    1.16961    0.40275   1.00
H2       0.68672    1.13677    0.44494   1.00
H2       0.71532    1.10345    0.47079   1.00
H2       0.72352    1.15418    0.47637   1.00
H2       0.75862    1.17349    0.37420   1.00
H2       0.71308    1.18037    0.39605   1.00
H2       0.75550    1.19437    0.42161   1.00
H2       0.80514    1.18274    0.47830   1.00
H2       0.83708    1.16435    0.51436   1.00
H2       0.85332    1.16787    0.46663   1.00
H2       0.76902    1.13099    0.52192   1.00
H2       0.77068    1.08168    0.50899   1.00
H2       0.80828    1.10165    0.53705   1.00
H2       0.76688    0.95703    0.42255   1.00
H2       0.76809    0.92035    0.38687   1.00
H2       0.78048    0.96835    0.37420   1.00
H2       0.70125    0.90359    0.41083   1.00
H2       0.69574    0.94435    0.44122   1.00
H2       0.66122    0.93449    0.40427   1.00
H2       0.60202    1.04942    0.36339   1.00
H2       0.64435    1.07037    0.38324   1.00
H2       0.64035    1.06396    0.33218   1.00
H2       0.64416    0.95354    0.33240   1.00
H2       0.60212    0.98279    0.33379   1.00
H2       0.64085    0.99556    0.30239   1.00
H2       0.78656    1.02927    0.34447   1.00
H2       0.77381    1.05663    0.30261   1.00
H2       0.75834    1.07189    0.34883   1.00
H2       0.74044    1.00513    0.26690   1.00
H2       0.75622    0.97158    0.30264   1.00
H2       0.70657    0.97362    0.28870   1.00
C4       0.49884    0.72916    0.49719   1.00
C4       0.49855    0.77088    0.49785   1.00
C3       0.47057    0.70636    0.47724   1.00
C3       0.46806    0.79384    0.48169   1.00
C3       0.52859    0.70877    0.51802   1.00
C3       0.53038    0.79114    0.51549   1.00
C2       0.50034    0.64488    0.49885   1.00
C2       0.49966    0.85512    0.50115   1.00
C3       0.47114    0.66538    0.47822   1.00
C3       0.46876    0.83481    0.48296   1.00
C3       0.52909    0.66742    0.51804   1.00
C3       0.52971    0.83238    0.51794   1.00
H1       0.44881    0.71885    0.46131   1.00
H1       0.44434    0.78148    0.46874   1.00
C5       0.55775    0.72980    0.53856   1.00
C5       0.56255    0.77020    0.53089   1.00
H1       0.44977    0.65045    0.46348   1.00
H1       0.44608    0.84990    0.47050   1.00
H1       0.55123    0.65320    0.53221   1.00
H1       0.55147    0.84632    0.53284   1.00
O3       0.58234    0.71039    0.56377   1.00
O3       0.59679    0.78901    0.54094   1.00
Si1      0.57138    0.70753    0.61006   1.00
Si1      0.62929    0.79721    0.50712   1.00
C6       0.60869    0.67462    0.62343   1.00
C6       0.57925    0.75402    0.63064   1.00
C6       0.52472    0.68747    0.61875   1.00
C6       0.61831    0.78307    0.45874   1.00
C6       0.63552    0.84802    0.50905   1.00
C6       0.67314    0.77523    0.52252   1.00
C6       0.61370    0.63806    0.59638   1.00
H2       0.63496    0.69209    0.61895   1.00
C6       0.61177    0.65853    0.66621   1.00
H2       0.60085    0.76642    0.61081   1.00
C6       0.54453    0.78366    0.63124   1.00
C6       0.59788    0.75664    0.67226   1.00
H2       0.52490    0.66169    0.59996   1.00
C6       0.51599    0.67228    0.66099   1.00
C6       0.48730    0.71151    0.60752   1.00
C6       0.60804    0.73929    0.45097   1.00
C6       0.58866    0.80775    0.43421   1.00
H2       0.64606    0.78788    0.44386   1.00
H2       0.60817    0.85949    0.49747   1.00
C6       0.63959    0.86622    0.55078   1.00
C6       0.66886    0.86607    0.48366   1.00
H2       0.68554    0.79625    0.54300   1.00
C6       0.66911    0.73664    0.54627   1.00
C6       0.70552    0.76756    0.49119   1.00
H2       0.61814    0.64654    0.56597   1.00
H2       0.58809    0.61910    0.59770   1.00
H2       0.63918    0.62083    0.60486   1.00
H2       0.64238    0.65392    0.67396   1.00
H2       0.59937    0.67822    0.68776   1.00
H2       0.59725    0.63036    0.66961   1.00
H2       0.55506    0.81328    0.63677   1.00
H2       0.52921    0.78468    0.60345   1.00
H2       0.52363    0.77648    0.65418   1.00
H2       0.62580    0.74138    0.67349   1.00
H2       0.60395    0.78692    0.68037   1.00
H2       0.57839    0.74450    0.69437   1.00
H2       0.52170    0.69486    0.68274   1.00
H2       0.48564    0.66292    0.66435   1.00
H2       0.53337    0.64668    0.66787   1.00
H2       0.47808    0.73098    0.63099   1.00
H2       0.49101    0.72932    0.58168   1.00
H2       0.46295    0.69172    0.60165   1.00
H2       0.57745    0.73312    0.45703   1.00
H2       0.61313    0.73191    0.42035   1.00
H2       0.62580    0.71952    0.46835   1.00
H2       0.58917    0.79875    0.40359   1.00
H2       0.55878    0.80426    0.44435   1.00
H2       0.59573    0.83878    0.43449   1.00
H2       0.63661    0.89798    0.54942   1.00
H2       0.61676    0.85565    0.57037   1.00
H2       0.66782    0.85965    0.56396   1.00
H2       0.66760    0.85584    0.45354   1.00
H2       0.66621    0.89788    0.48279   1.00
H2       0.69761    0.85915    0.49556   1.00
H2       0.65553    0.71344    0.52927   1.00
H2       0.69739    0.72619    0.55663   1.00
H2       0.65117    0.74166    0.57189   1.00
H2       0.73310    0.75956    0.50513   1.00
H2       0.69736    0.74378    0.47158   1.00
H2       0.71130    0.79343    0.47362   1.00
C4       0.49719    0.99884    0.22916   1.00
C4       0.49785    0.99855    0.27088   1.00
C3       0.47724    0.97057    0.20636   1.00
C3       0.48169    0.96806    0.29384   1.00
C3       0.51802    1.02859    0.20877   1.00
C3       0.51549    1.03038    0.29114   1.00
C2       0.49885    1.00034    0.14488   1.00
C2       0.50115    0.99966    0.35512   1.00
C3       0.47822    0.97114    0.16538   1.00
C3       0.48296    0.96876    0.33481   1.00
C3       0.51804    1.02909    0.16742   1.00
C3       0.51794    1.02971    0.33238   1.00
H1       0.46131    0.94881    0.21885   1.00
H1       0.46874    0.94434    0.28148   1.00
C5       0.53856    1.05775    0.22980   1.00
C5       0.53089    1.06255    0.27020   1.00
H1       0.46348    0.94977    0.15045   1.00
H1       0.47050    0.94608    0.34990   1.00
H1       0.53221    1.05123    0.15320   1.00
H1       0.53284    1.05147    0.34632   1.00
O3       0.56377    1.08234    0.21039   1.00
O3       0.54094    1.09679    0.28901   1.00
Si1      0.61006    1.07138    0.20753   1.00
Si1      0.50712    1.12929    0.29721   1.00
C6       0.62343    1.10869    0.17462   1.00
C6       0.63064    1.07925    0.25402   1.00
C6       0.61875    1.02472    0.18747   1.00
C6       0.45874    1.11831    0.28307   1.00
C6       0.50905    1.13552    0.34802   1.00
C6       0.52252    1.17314    0.27523   1.00
C6       0.59638    1.11370    0.13806   1.00
H2       0.61895    1.13496    0.19209   1.00
C6       0.66621    1.11177    0.15853   1.00
H2       0.61081    1.10085    0.26642   1.00
C6       0.63124    1.04453    0.28366   1.00
C6       0.67226    1.09788    0.25664   1.00
H2       0.59996    1.02490    0.16169   1.00
C6       0.66099    1.01599    0.17228   1.00
C6       0.60752    0.98730    0.21151   1.00
C6       0.45097    1.10804    0.23929   1.00
C6       0.43421    1.08866    0.30775   1.00
H2       0.44386    1.14606    0.28788   1.00
H2       0.49747    1.10817    0.35949   1.00
C6       0.55078    1.13959    0.36622   1.00
C6       0.48366    1.16886    0.36607   1.00
H2       0.54300    1.18554    0.29625   1.00
C6       0.54627    1.16911    0.23664   1.00
C6       0.49119    1.20552    0.26756   1.00
H2       0.56597    1.11814    0.14654   1.00
H2       0.59770    1.08809    0.11910   1.00
H2       0.60486    1.13918    0.12083   1.00
H2       0.67396    1.14238    0.15392   1.00
H2       0.68776    1.09937    0.17822   1.00
H2       0.66961    1.09725    0.13036   1.00
H2       0.63677    1.05506    0.31328   1.00
H2       0.60345    1.02921    0.28468   1.00
H2       0.65418    1.02363    0.27648   1.00
H2       0.67349    1.12580    0.24138   1.00
H2       0.68037    1.10395    0.28692   1.00
H2       0.69437    1.07839    0.24450   1.00
H2       0.68274    1.02170    0.19486   1.00
H2       0.66435    0.98564    0.16292   1.00
H2       0.66787    1.03337    0.14668   1.00
H2       0.63099    0.97808    0.23098   1.00
H2       0.58168    0.99101    0.22932   1.00
H2       0.60165    0.96295    0.19172   1.00
H2       0.45703    1.07745    0.23312   1.00
H2       0.42035    1.11313    0.23191   1.00
H2       0.46835    1.12580    0.21952   1.00
H2       0.40359    1.08917    0.29875   1.00
H2       0.44435    1.05878    0.30426   1.00
H2       0.43449    1.09573    0.33878   1.00
H2       0.54942    1.13661    0.39798   1.00
H2       0.57037    1.11676    0.35565   1.00
H2       0.56396    1.16782    0.35965   1.00
H2       0.45354    1.16760    0.35584   1.00
H2       0.48279    1.16621    0.39788   1.00
H2       0.49556    1.19761    0.35915   1.00
H2       0.52927    1.15553    0.21344   1.00
H2       0.55663    1.19739    0.22619   1.00
H2       0.57189    1.15117    0.24166   1.00
H2       0.50513    1.23310    0.25956   1.00
H2       0.47158    1.19736    0.24378   1.00
H2       0.47362    1.21130    0.29343   1.00
C4       0.99719    0.50116    0.77084   1.00
C4       0.99785    0.50145    0.72912   1.00
C3       0.97724    0.52943    0.79364   1.00
C3       0.98169    0.53194    0.70616   1.00
C3       1.01802    0.47141    0.79123   1.00
C3       1.01549    0.46962    0.70886   1.00
C2       0.99885    0.49966    0.85512   1.00
C2       1.00115    0.50034    0.64488   1.00
C3       0.97822    0.52886    0.83462   1.00
C3       0.98296    0.53124    0.66519   1.00
C3       1.01804    0.47091    0.83258   1.00
C3       1.01794    0.47029    0.66762   1.00
H1       0.96131    0.55119    0.78115   1.00
H1       0.96874    0.55566    0.71852   1.00
C5       1.03856    0.44225    0.77020   1.00
C5       1.03089    0.43745    0.72980   1.00
H1       0.96348    0.55023    0.84955   1.00
H1       0.97050    0.55392    0.65010   1.00
H1       1.03221    0.44877    0.84680   1.00
H1       1.03284    0.44853    0.65368   1.00
O3       1.06377    0.41766    0.78961   1.00
O3       1.04094    0.40321    0.71099   1.00
Si1      1.11006    0.42862    0.79247   1.00
Si1      1.00712    0.37071    0.70279   1.00
C6       1.12343    0.39131    0.82538   1.00
C6       1.13064    0.42075    0.74598   1.00
C6       1.11875    0.47528    0.81253   1.00
C6       0.95874    0.38169    0.71693   1.00
C6       1.00905    0.36448    0.65198   1.00
C6       1.02252    0.32686    0.72477   1.00
C6       1.09638    0.38630    0.86194   1.00
H2       1.11895    0.36504    0.80791   1.00
C6       1.16621    0.38823    0.84147   1.00
H2       1.11081    0.39915    0.73358   1.00
C6       1.13124    0.45547    0.71634   1.00
C6       1.17226    0.40212    0.74336   1.00
H2       1.09996    0.47510    0.83831   1.00
C6       1.16099    0.48401    0.82772   1.00
C6       1.10752    0.51270    0.78849   1.00
C6       0.95097    0.39196    0.76071   1.00
C6       0.93421    0.41134    0.69225   1.00
H2       0.94386    0.35394    0.71212   1.00
H2       0.99747    0.39183    0.64051   1.00
C6       1.05078    0.36041    0.63378   1.00
C6       0.98366    0.33114    0.63393   1.00
H2       1.04300    0.31446    0.70375   1.00
C6       1.04627    0.33089    0.76336   1.00
C6       0.99119    0.29448    0.73244   1.00
H2       1.06597    0.38186    0.85346   1.00
H2       1.09770    0.41191    0.88090   1.00
H2       1.10486    0.36082    0.87917   1.00
H2       1.17396    0.35762    0.84608   1.00
H2       1.18776    0.40063    0.82178   1.00
H2       1.16961    0.40275    0.86964   1.00
H2       1.13677    0.44494    0.68672   1.00
H2       1.10345    0.47079    0.71532   1.00
H2       1.15418    0.47637    0.72352   1.00
H2       1.17349    0.37420    0.75862   1.00
H2       1.18037    0.39605    0.71308   1.00
H2       1.19437    0.42161    0.75550   1.00
H2       1.18274    0.47830    0.80514   1.00
H2       1.16435    0.51436    0.83708   1.00
H2       1.16787    0.46663    0.85332   1.00
H2       1.13099    0.52192    0.76902   1.00
H2       1.08168    0.50899    0.77068   1.00
H2       1.10165    0.53705    0.80828   1.00
H2       0.95703    0.42255    0.76688   1.00
H2       0.92035    0.38687    0.76809   1.00
H2       0.96835    0.37420    0.78048   1.00
H2       0.90359    0.41083    0.70125   1.00
H2       0.94435    0.44122    0.69574   1.00
H2       0.93449    0.40427    0.66122   1.00
H2       1.04942    0.36339    0.60202   1.00
H2       1.07037    0.38324    0.64435   1.00
H2       1.06396    0.33218    0.64035   1.00
H2       0.95354    0.33240    0.64416   1.00
H2       0.98279    0.33379    0.60212   1.00
H2       0.99556    0.30239    0.64085   1.00
H2       1.02927    0.34447    0.78656   1.00
H2       1.05663    0.30261    0.77381   1.00
H2       1.07189    0.34883    0.75834   1.00
H2       1.00513    0.26690    0.74044   1.00
H2       0.97158    0.30264    0.75622   1.00
H2       0.97362    0.28870    0.70657   1.00
C4       1.00116    0.77084    0.49719   1.00
C4       1.00145    0.72912    0.49785   1.00
C3       1.02943    0.79364    0.47724   1.00
C3       1.03194    0.70616    0.48169   1.00
C3       0.97141    0.79123    0.51802   1.00
C3       0.96962    0.70886    0.51549   1.00
C2       0.99966    0.85512    0.49885   1.00
C2       1.00034    0.64488    0.50115   1.00
C3       1.02886    0.83462    0.47822   1.00
C3       1.03124    0.66519    0.48296   1.00
C3       0.97091    0.83258    0.51804   1.00
C3       0.97029    0.66762    0.51794   1.00
H1       1.05119    0.78115    0.46131   1.00
H1       1.05566    0.71852    0.46874   1.00
C5       0.94225    0.77020    0.53856   1.00
C5       0.93745    0.72980    0.53089   1.00
H1       1.05023    0.84955    0.46348   1.00
H1       1.05392    0.65010    0.47050   1.00
H1       0.94877    0.84680    0.53221   1.00
H1       0.94853    0.65368    0.53284   1.00
O3       0.91766    0.78961    0.56377   1.00
O3       0.90321    0.71099    0.54094   1.00
Si1      0.92862    0.79247    0.61006   1.00
Si1      0.87071    0.70279    0.50712   1.00
C6       0.89131    0.82538    0.62343   1.00
C6       0.92075    0.74598    0.63064   1.00
C6       0.97528    0.81253    0.61875   1.00
C6       0.88169    0.71693    0.45874   1.00
C6       0.86448    0.65198    0.50905   1.00
C6       0.82686    0.72477    0.52252   1.00
C6       0.88630    0.86194    0.59638   1.00
H2       0.86504    0.80791    0.61895   1.00
C6       0.88823    0.84147    0.66621   1.00
H2       0.89915    0.73358    0.61081   1.00
C6       0.95547    0.71634    0.63124   1.00
C6       0.90212    0.74336    0.67226   1.00
H2       0.97510    0.83831    0.59996   1.00
C6       0.98401    0.82772    0.66099   1.00
C6       1.01270    0.78849    0.60752   1.00
C6       0.89196    0.76071    0.45097   1.00
C6       0.91134    0.69225    0.43421   1.00
H2       0.85394    0.71212    0.44386   1.00
H2       0.89183    0.64051    0.49747   1.00
C6       0.86041    0.63378    0.55078   1.00
C6       0.83114    0.63393    0.48366   1.00
H2       0.81446    0.70375    0.54300   1.00
C6       0.83089    0.76336    0.54627   1.00
C6       0.79448    0.73244    0.49119   1.00
H2       0.88186    0.85346    0.56597   1.00
H2       0.91191    0.88090    0.59770   1.00
H2       0.86082    0.87917    0.60486   1.00
H2       0.85762    0.84608    0.67396   1.00
H2       0.90063    0.82178    0.68776   1.00
H2       0.90275    0.86964    0.66961   1.00
H2       0.94494    0.68672    0.63677   1.00
H2       0.97079    0.71532    0.60345   1.00
H2       0.97637    0.72352    0.65418   1.00
H2       0.87420    0.75862    0.67349   1.00
H2       0.89605    0.71308    0.68037   1.00
H2       0.92161    0.75550    0.69437   1.00
H2       0.97830    0.80514    0.68274   1.00
H2       1.01436    0.83708    0.66435   1.00
H2       0.96663    0.85332    0.66787   1.00
H2       1.02192    0.76902    0.63099   1.00
H2       1.00899    0.77068    0.58168   1.00
H2       1.03705    0.80828    0.60165   1.00
H2       0.92255    0.76688    0.45703   1.00
H2       0.88687    0.76809    0.42035   1.00
H2       0.87420    0.78048    0.46835   1.00
H2       0.91083    0.70125    0.40359   1.00
H2       0.94122    0.69574    0.44435   1.00
H2       0.90427    0.66122    0.43449   1.00
H2       0.86339    0.60202    0.54942   1.00
H2       0.88324    0.64435    0.57037   1.00
H2       0.83218    0.64035    0.56396   1.00
H2       0.83240    0.64416    0.45354   1.00
H2       0.83379    0.60212    0.48279   1.00
H2       0.80239    0.64085    0.49556   1.00
H2       0.84447    0.78656    0.52927   1.00
H2       0.80261    0.77381    0.55663   1.00
H2       0.84883    0.75834    0.57189   1.00
H2       0.76690    0.74044    0.50513   1.00
H2       0.80264    0.75622    0.47158   1.00
H2       0.78870    0.70657    0.47362   1.00
C4       0.72916    0.49719    0.49884   1.00
C4       0.77088    0.49785    0.49855   1.00
C3       0.70636    0.47724    0.47057   1.00
C3       0.79384    0.48169    0.46806   1.00
C3       0.70877    0.51802    0.52859   1.00
C3       0.79114    0.51549    0.53038   1.00
C2       0.64488    0.49885    0.50034   1.00
C2       0.85512    0.50115    0.49966   1.00
C3       0.66538    0.47822    0.47114   1.00
C3       0.83481    0.48296    0.46876   1.00
C3       0.66742    0.51804    0.52909   1.00
C3       0.83238    0.51794    0.52971   1.00
H1       0.71885    0.46131    0.44881   1.00
H1       0.78148    0.46874    0.44434   1.00
C5       0.72980    0.53856    0.55775   1.00
C5       0.77020    0.53089    0.56255   1.00
H1       0.65045    0.46348    0.44977   1.00
H1       0.84990    0.47050    0.44608   1.00
H1       0.65320    0.53221    0.55123   1.00
H1       0.84632    0.53284    0.55147   1.00
O3       0.71039    0.56377    0.58234   1.00
O3       0.78901    0.54094    0.59679   1.00
Si1      0.70753    0.61006    0.57138   1.00
Si1      0.79721    0.50712    0.62929   1.00
C6       0.67462    0.62343    0.60869   1.00
C6       0.75402    0.63064    0.57925   1.00
C6       0.68747    0.61875    0.52472   1.00
C6       0.78307    0.45874    0.61831   1.00
C6       0.84802    0.50905    0.63552   1.00
C6       0.77523    0.52252    0.67314   1.00
C6       0.63806    0.59638    0.61370   1.00
H2       0.69209    0.61895    0.63496   1.00
C6       0.65853    0.66621    0.61177   1.00
H2       0.76642    0.61081    0.60085   1.00
C6       0.78366    0.63124    0.54453   1.00
C6       0.75664    0.67226    0.59788   1.00
H2       0.66169    0.59996    0.52490   1.00
C6       0.67228    0.66099    0.51599   1.00
C6       0.71151    0.60752    0.48730   1.00
C6       0.73929    0.45097    0.60804   1.00
C6       0.80775    0.43421    0.58866   1.00
H2       0.78788    0.44386    0.64606   1.00
H2       0.85949    0.49747    0.60817   1.00
C6       0.86622    0.55078    0.63959   1.00
C6       0.86607    0.48366    0.66886   1.00
H2       0.79625    0.54300    0.68554   1.00
C6       0.73664    0.54627    0.66911   1.00
C6       0.76756    0.49119    0.70552   1.00
H2       0.64654    0.56597    0.61814   1.00
H2       0.61910    0.59770    0.58809   1.00
H2       0.62083    0.60486    0.63918   1.00
H2       0.65392    0.67396    0.64238   1.00
H2       0.67822    0.68776    0.59937   1.00
H2       0.63036    0.66961    0.59725   1.00
H2       0.81328    0.63677    0.55506   1.00
H2       0.78468    0.60345    0.52921   1.00
H2       0.77648    0.65418    0.52363   1.00
H2       0.74138    0.67349    0.62580   1.00
H2       0.78692    0.68037    0.60395   1.00
H2       0.74450    0.69437    0.57839   1.00
H2       0.69486    0.68274    0.52170   1.00
H2       0.66292    0.66435    0.48564   1.00
H2       0.64668    0.66787    0.53337   1.00
H2       0.73098    0.63099    0.47808   1.00
H2       0.72932    0.58168    0.49101   1.00
H2       0.69172    0.60165    0.46295   1.00
H2       0.73312    0.45703    0.57745   1.00
H2       0.73191    0.42035    0.61313   1.00
H2       0.71952    0.46835    0.62580   1.00
H2       0.79875    0.40359    0.58917   1.00
H2       0.80426    0.44435    0.55878   1.00
H2       0.83878    0.43449    0.59573   1.00
H2       0.89798    0.54942    0.63661   1.00
H2       0.85565    0.57037    0.61676   1.00
H2       0.85965    0.56396    0.66782   1.00
H2       0.85584    0.45354    0.66760   1.00
H2       0.89788    0.48279    0.66621   1.00
H2       0.85915    0.49556    0.69761   1.00
H2       0.71344    0.52927    0.65553   1.00
H2       0.72619    0.55663    0.69739   1.00
H2       0.74166    0.57189    0.65117   1.00
H2       0.75956    0.50513    0.73310   1.00
H2       0.74378    0.47158    0.69736   1.00
H2       0.79343    0.47362    0.71130   1.00
C4       1.27084    0.49719    0.50116   1.00
C4       1.22912    0.49785    0.50145   1.00
C3       1.29364    0.47724    0.52943   1.00
C3       1.20616    0.48169    0.53194   1.00
C3       1.29123    0.51802    0.47141   1.00
C3       1.20886    0.51549    0.46962   1.00
C2       1.35512    0.49885    0.49966   1.00
C2       1.14488    0.50115    0.50034   1.00
C3       1.33462    0.47822    0.52886   1.00
C3       1.16519    0.48296    0.53124   1.00
C3       1.33258    0.51804    0.47091   1.00
C3       1.16762    0.51794    0.47029   1.00
H1       1.28115    0.46131    0.55119   1.00
H1       1.21852    0.46874    0.55566   1.00
C5       1.27020    0.53856    0.44225   1.00
C5       1.22980    0.53089    0.43745   1.00
H1       1.34955    0.46348    0.55023   1.00
H1       1.15010    0.47050    0.55392   1.00
H1       1.34680    0.53221    0.44877   1.00
H1       1.15368    0.53284    0.44853   1.00
O3       1.28961    0.56377    0.41766   1.00
O3       1.21099    0.54094    0.40321   1.00
Si1      1.29247    0.61006    0.42862   1.00
Si1      1.20279    0.50712    0.37071   1.00
C6       1.32538    0.62343    0.39131   1.00
C6       1.24598    0.63064    0.42075   1.00
C6       1.31253    0.61875    0.47528   1.00
C6       1.21693    0.45874    0.38169   1.00
C6       1.15198    0.50905    0.36448   1.00
C6       1.22477    0.52252    0.32686   1.00
C6       1.36194    0.59638    0.38630   1.00
H2       1.30791    0.61895    0.36504   1.00
C6       1.34147    0.66621    0.38823   1.00
H2       1.23358    0.61081    0.39915   1.00
C6       1.21634    0.63124    0.45547   1.00
C6       1.24336    0.67226    0.40212   1.00
H2       1.33831    0.59996    0.47510   1.00
C6       1.32772    0.66099    0.48401   1.00
C6       1.28849    0.60752    0.51270   1.00
C6       1.26071    0.45097    0.39196   1.00
C6       1.19225    0.43421    0.41134   1.00
H2       1.21212    0.44386    0.35394   1.00
H2       1.14051    0.49747    0.39183   1.00
C6       1.13378    0.55078    0.36041   1.00
C6       1.13393    0.48366    0.33114   1.00
H2       1.20375    0.54300    0.31446   1.00
C6       1.26336    0.54627    0.33089   1.00
C6       1.23244    0.49119    0.29448   1.00
H2       1.35346    0.56597    0.38186   1.00
H2       1.38090    0.59770    0.41191   1.00
H2       1.37917    0.60486    0.36082   1.00
H2       1.34608    0.67396    0.35762   1.00
H2       1.32178    0.68776    0.40063   1.00
H2       1.36964    0.66961    0.40275   1.00
H2       1.18672    0.63677    0.44494   1.00
H2       1.21532    0.60345    0.47079   1.00
H2       1.22352    0.65418    0.47637   1.00
H2       1.25862    0.67349    0.37420   1.00
H2       1.21308    0.68037    0.39605   1.00
H2       1.25550    0.69437    0.42161   1.00
H2       1.30514    0.68274    0.47830   1.00
H2       1.33708    0.66435    0.51436   1.00
H2       1.35332    0.66787    0.46663   1.00
H2       1.26902    0.63099    0.52192   1.00
H2       1.27068    0.58168    0.50899   1.00
H2       1.30828    0.60165    0.53705   1.00
H2       1.26688    0.45703    0.42255   1.00
H2       1.26809    0.42035    0.38687   1.00
H2       1.28048    0.46835    0.37420   1.00
H2       1.20125    0.40359    0.41083   1.00
H2       1.19574    0.44435    0.44122   1.00
H2       1.16122    0.43449    0.40427   1.00
H2       1.10202    0.54942    0.36339   1.00
H2       1.14435    0.57037    0.38324   1.00
H2       1.14035    0.56396    0.33218   1.00
H2       1.14416    0.45354    0.33240   1.00
H2       1.10212    0.48279    0.33379   1.00
H2       1.14085    0.49556    0.30239   1.00
H2       1.28656    0.52927    0.34447   1.00
H2       1.27381    0.55663    0.30261   1.00
H2       1.25834    0.57189    0.34883   1.00
H2       1.24044    0.50513    0.26690   1.00
H2       1.25622    0.47158    0.30264   1.00
H2       1.20657    0.47362    0.28870   1.00
C4       0.99884    0.22916    0.49719   1.00
C4       0.99855    0.27088    0.49785   1.00
C3       0.97057    0.20636    0.47724   1.00
C3       0.96806    0.29384    0.48169   1.00
C3       1.02859    0.20877    0.51802   1.00
C3       1.03038    0.29114    0.51549   1.00
C2       1.00034    0.14488    0.49885   1.00
C2       0.99966    0.35512    0.50115   1.00
C3       0.97114    0.16538    0.47822   1.00
C3       0.96876    0.33481    0.48296   1.00
C3       1.02909    0.16742    0.51804   1.00
C3       1.02971    0.33238    0.51794   1.00
H1       0.94881    0.21885    0.46131   1.00
H1       0.94434    0.28148    0.46874   1.00
C5       1.05775    0.22980    0.53856   1.00
C5       1.06255    0.27020    0.53089   1.00
H1       0.94977    0.15045    0.46348   1.00
H1       0.94608    0.34990    0.47050   1.00
H1       1.05123    0.15320    0.53221   1.00
H1       1.05147    0.34632    0.53284   1.00
O3       1.08234    0.21039    0.56377   1.00
O3       1.09679    0.28901    0.54094   1.00
Si1      1.07138    0.20753    0.61006   1.00
Si1      1.12929    0.29721    0.50712   1.00
C6       1.10869    0.17462    0.62343   1.00
C6       1.07925    0.25402    0.63064   1.00
C6       1.02472    0.18747    0.61875   1.00
C6       1.11831    0.28307    0.45874   1.00
C6       1.13552    0.34802    0.50905   1.00
C6       1.17314    0.27523    0.52252   1.00
C6       1.11370    0.13806    0.59638   1.00
H2       1.13496    0.19209    0.61895   1.00
C6       1.11177    0.15853    0.66621   1.00
H2       1.10085    0.26642    0.61081   1.00
C6       1.04453    0.28366    0.63124   1.00
C6       1.09788    0.25664    0.67226   1.00
H2       1.02490    0.16169    0.59996   1.00
C6       1.01599    0.17228    0.66099   1.00
C6       0.98730    0.21151    0.60752   1.00
C6       1.10804    0.23929    0.45097   1.00
C6       1.08866    0.30775    0.43421   1.00
H2       1.14606    0.28788    0.44386   1.00
H2       1.10817    0.35949    0.49747   1.00
C6       1.13959    0.36622    0.55078   1.00
C6       1.16886    0.36607    0.48366   1.00
H2       1.18554    0.29625    0.54300   1.00
C6       1.16911    0.23664    0.54627   1.00
C6       1.20552    0.26756    0.49119   1.00
H2       1.11814    0.14654    0.56597   1.00
H2       1.08809    0.11910    0.59770   1.00
H2       1.13918    0.12083    0.60486   1.00
H2       1.14238    0.15392    0.67396   1.00
H2       1.09937    0.17822    0.68776   1.00
H2       1.09725    0.13036    0.66961   1.00
H2       1.05506    0.31328    0.63677   1.00
H2       1.02921    0.28468    0.60345   1.00
H2       1.02363    0.27648    0.65418   1.00
H2       1.12580    0.24138    0.67349   1.00
H2       1.10395    0.28692    0.68037   1.00
H2       1.07839    0.24450    0.69437   1.00
H2       1.02170    0.19486    0.68274   1.00
H2       0.98564    0.16292    0.66435   1.00
H2       1.03337    0.14668    0.66787   1.00
H2       0.97808    0.23098    0.63099   1.00
H2       0.99101    0.22932    0.58168   1.00
H2       0.96295    0.19172    0.60165   1.00
H2       1.07745    0.23312    0.45703   1.00
H2       1.11313    0.23191    0.42035   1.00
H2       1.12580    0.21952    0.46835   1.00
H2       1.08917    0.29875    0.40359   1.00
H2       1.05878    0.30426    0.44435   1.00
H2       1.09573    0.33878    0.43449   1.00
H2       1.13661    0.39798    0.54942   1.00
H2       1.11676    0.35565    0.57037   1.00
H2       1.16782    0.35965    0.56396   1.00
H2       1.16760    0.35584    0.45354   1.00
H2       1.16621    0.39788    0.48279   1.00
H2       1.19761    0.35915    0.49556   1.00
H2       1.15553    0.21344    0.52927   1.00
H2       1.19739    0.22619    0.55663   1.00
H2       1.15117    0.24166    0.57189   1.00
H2       1.23310    0.25956    0.50513   1.00
H2       1.19736    0.24378    0.47158   1.00
H2       1.21130    0.29343    0.47362   1.00
C4       0.99719    0.49884    0.22916   1.00
C4       0.99785    0.49855    0.27088   1.00
C3       0.97724    0.47057    0.20636   1.00
C3       0.98169    0.46806    0.29384   1.00
C3       1.01802    0.52859    0.20877   1.00
C3       1.01549    0.53038    0.29114   1.00
C2       0.99885    0.50034    0.14488   1.00
C2       1.00115    0.49966    0.35512   1.00
C3       0.97822    0.47114    0.16538   1.00
C3       0.98296    0.46876    0.33481   1.00
C3       1.01804    0.52909    0.16742   1.00
C3       1.01794    0.52971    0.33238   1.00
H1       0.96131    0.44881    0.21885   1.00
H1       0.96874    0.44434    0.28148   1.00
C5       1.03856    0.55775    0.22980   1.00
C5       1.03089    0.56255    0.27020   1.00
H1       0.96348    0.44977    0.15045   1.00
H1       0.97050    0.44608    0.34990   1.00
H1       1.03221    0.55123    0.15320   1.00
H1       1.03284    0.55147    0.34632   1.00
O3       1.06377    0.58234    0.21039   1.00
O3       1.04094    0.59679    0.28901   1.00
Si1      1.11006    0.57138    0.20753   1.00
Si1      1.00712    0.62929    0.29721   1.00
C6       1.12343    0.60869    0.17462   1.00
C6       1.13064    0.57925    0.25402   1.00
C6       1.11875    0.52472    0.18747   1.00
C6       0.95874    0.61831    0.28307   1.00
C6       1.00905    0.63552    0.34802   1.00
C6       1.02252    0.67314    0.27523   1.00
C6       1.09638    0.61370    0.13806   1.00
H2       1.11895    0.63496    0.19209   1.00
C6       1.16621    0.61177    0.15853   1.00
H2       1.11081    0.60085    0.26642   1.00
C6       1.13124    0.54453    0.28366   1.00
C6       1.17226    0.59788    0.25664   1.00
H2       1.09996    0.52490    0.16169   1.00
C6       1.16099    0.51599    0.17228   1.00
C6       1.10752    0.48730    0.21151   1.00
C6       0.95097    0.60804    0.23929   1.00
C6       0.93421    0.58866    0.30775   1.00
H2       0.94386    0.64606    0.28788   1.00
H2       0.99747    0.60817    0.35949   1.00
C6       1.05078    0.63959    0.36622   1.00
C6       0.98366    0.66886    0.36607   1.00
H2       1.04300    0.68554    0.29625   1.00
C6       1.04627    0.66911    0.23664   1.00
C6       0.99119    0.70552    0.26756   1.00
H2       1.06597    0.61814    0.14654   1.00
H2       1.09770    0.58809    0.11910   1.00
H2       1.10486    0.63918    0.12083   1.00
H2       1.17396    0.64238    0.15392   1.00
H2       1.18776    0.59937    0.17822   1.00
H2       1.16961    0.59725    0.13036   1.00
H2       1.13677    0.55506    0.31328   1.00
H2       1.10345    0.52921    0.28468   1.00
H2       1.15418    0.52363    0.27648   1.00
H2       1.17349    0.62580    0.24138   1.00
H2       1.18037    0.60395    0.28692   1.00
H2       1.19437    0.57839    0.24450   1.00
H2       1.18274    0.52170    0.19486   1.00
H2       1.16435    0.48564    0.16292   1.00
H2       1.16787    0.53337    0.14668   1.00
H2       1.13099    0.47808    0.23098   1.00
H2       1.08168    0.49101    0.22932   1.00
H2       1.10165    0.46295    0.19172   1.00
H2       0.95703    0.57745    0.23312   1.00
H2       0.92035    0.61313    0.23191   1.00
H2       0.96835    0.62580    0.21952   1.00
H2       0.90359    0.58917    0.29875   1.00
H2       0.94435    0.55878    0.30426   1.00
H2       0.93449    0.59573    0.33878   1.00
H2       1.04942    0.63661    0.39798   1.00
H2       1.07037    0.61676    0.35565   1.00
H2       1.06396    0.66782    0.35965   1.00
H2       0.95354    0.66760    0.35584   1.00
H2       0.98279    0.66621    0.39788   1.00
H2       0.99556    0.69761    0.35915   1.00
H2       1.02927    0.65553    0.21344   1.00
H2       1.05663    0.69739    0.22619   1.00
H2       1.07189    0.65117    0.24166   1.00
H2       1.00513    0.73310    0.25956   1.00
H2       0.97158    0.69736    0.24378   1.00
H2       0.97362    0.71130    0.29343   1.00
