data_IRMOF10_SG202_interpen_Ligand3lp_label_b.

_audit_creation_method             'generated by an auxiliary program of Tobunporous'

_symmetry_space_group_name_H-M     'P 1'
_symmetry_Int_Tables_number        1
_symmetry_cell_setting             triclinic

_cell_length_a                    34.2800
_cell_length_b                    34.2800
_cell_length_c                    34.2800
_cell_angle_alpha                 90.0000
_cell_angle_beta                  90.0000
_cell_angle_gamma                 90.0000

loop_
_atom_site_label
_atom_site_fract_x
_atom_site_fract_y
_atom_site_fract_z
_atom_site_occupancy
O1       0.75000    0.75000    0.75000   1.00
Zn1      0.71720    0.78280    0.78280   1.00
Zn1      0.78280    0.71720    0.78280   1.00
Zn1      0.78280    0.78280    0.71720   1.00
Zn1      0.71720    0.71720    0.71720   1.00
O2       0.72650    0.77350    0.83820   1.00
O2       0.72650    0.83820    0.77350   1.00
O2       0.66180    0.77350    0.77350   1.00
O2       0.77350    0.72650    0.83820   1.00
O2       0.83820    0.72650    0.77350   1.00
O2       0.77350    0.66180    0.77350   1.00
O2       0.77350    0.83820    0.72650   1.00
O2       0.83820    0.77350    0.72650   1.00
O2       0.77350    0.77350    0.66180   1.00
O2       0.66180    0.72650    0.72650   1.00
O2       0.72650    0.66180    0.72650   1.00
O2       0.72650    0.72650    0.66180   1.00
C1       0.75000    0.75000    0.85520   1.00
C1       0.75000    0.85520    0.75000   1.00
C1       0.64480    0.75000    0.75000   1.00
C1       0.85520    0.75000    0.75000   1.00
C1       0.75000    0.64480    0.75000   1.00
C1       0.75000    0.75000    0.64480   1.00
O1       0.25000    0.25000    0.75000   1.00
Zn1      0.21720    0.28280    0.78280   1.00
Zn1      0.28280    0.21720    0.78280   1.00
Zn1      0.28280    0.28280    0.71720   1.00
Zn1      0.21720    0.21720    0.71720   1.00
O2       0.22650    0.27350    0.83820   1.00
O2       0.22650    0.33820    0.77350   1.00
O2       0.16180    0.27350    0.77350   1.00
O2       0.27350    0.22650    0.83820   1.00
O2       0.33820    0.22650    0.77350   1.00
O2       0.27350    0.16180    0.77350   1.00
O2       0.27350    0.33820    0.72650   1.00
O2       0.33820    0.27350    0.72650   1.00
O2       0.27350    0.27350    0.66180   1.00
O2       0.16180    0.22650    0.72650   1.00
O2       0.22650    0.16180    0.72650   1.00
O2       0.22650    0.22650    0.66180   1.00
C1       0.25000    0.25000    0.85520   1.00
C1       0.25000    0.35520    0.75000   1.00
C1       0.14480    0.25000    0.75000   1.00
C1       0.35520    0.25000    0.75000   1.00
C1       0.25000    0.14480    0.75000   1.00
C1       0.25000    0.25000    0.64480   1.00
O1       0.25000    0.75000    0.25000   1.00
Zn1      0.21720    0.78280    0.28280   1.00
Zn1      0.28280    0.71720    0.28280   1.00
Zn1      0.28280    0.78280    0.21720   1.00
Zn1      0.21720    0.71720    0.21720   1.00
O2       0.22650    0.77350    0.33820   1.00
O2       0.22650    0.83820    0.27350   1.00
O2       0.16180    0.77350    0.27350   1.00
O2       0.27350    0.72650    0.33820   1.00
O2       0.33820    0.72650    0.27350   1.00
O2       0.27350    0.66180    0.27350   1.00
O2       0.27350    0.83820    0.22650   1.00
O2       0.33820    0.77350    0.22650   1.00
O2       0.27350    0.77350    0.16180   1.00
O2       0.16180    0.72650    0.22650   1.00
O2       0.22650    0.66180    0.22650   1.00
O2       0.22650    0.72650    0.16180   1.00
C1       0.25000    0.75000    0.35520   1.00
C1       0.25000    0.85520    0.25000   1.00
C1       0.14480    0.75000    0.25000   1.00
C1       0.35520    0.75000    0.25000   1.00
C1       0.25000    0.64480    0.25000   1.00
C1       0.25000    0.75000    0.14480   1.00
O1       0.75000    0.25000    0.25000   1.00
Zn1      0.71720    0.28280    0.28280   1.00
Zn1      0.78280    0.21720    0.28280   1.00
Zn1      0.78280    0.28280    0.21720   1.00
Zn1      0.71720    0.21720    0.21720   1.00
O2       0.72650    0.27350    0.33820   1.00
O2       0.72650    0.33820    0.27350   1.00
O2       0.66180    0.27350    0.27350   1.00
O2       0.77350    0.22650    0.33820   1.00
O2       0.83820    0.22650    0.27350   1.00
O2       0.77350    0.16180    0.27350   1.00
O2       0.77350    0.33820    0.22650   1.00
O2       0.83820    0.27350    0.22650   1.00
O2       0.77350    0.27350    0.16180   1.00
O2       0.66180    0.22650    0.22650   1.00
O2       0.72650    0.16180    0.22650   1.00
O2       0.72650    0.22650    0.16180   1.00
C1       0.75000    0.25000    0.35520   1.00
C1       0.75000    0.35520    0.25000   1.00
C1       0.64480    0.25000    0.25000   1.00
C1       0.85520    0.25000    0.25000   1.00
C1       0.75000    0.14480    0.25000   1.00
C1       0.75000    0.25000    0.14480   1.00
O1       0.25000    0.25000    0.25000   1.00
Zn1      0.28280    0.21720    0.21720   1.00
Zn1      0.21720    0.28280    0.21720   1.00
Zn1      0.21720    0.21720    0.28280   1.00
Zn1      0.28280    0.28280    0.28280   1.00
O2       0.27350    0.22650    0.16180   1.00
O2       0.27350    0.16180    0.22650   1.00
O2       0.33820    0.22650    0.22650   1.00
O2       0.22650    0.27350    0.16180   1.00
O2       0.16180    0.27350    0.22650   1.00
O2       0.22650    0.33820    0.22650   1.00
O2       0.22650    0.16180    0.27350   1.00
O2       0.16180    0.22650    0.27350   1.00
O2       0.22650    0.22650    0.33820   1.00
O2       0.33820    0.27350    0.27350   1.00
O2       0.27350    0.33820    0.27350   1.00
O2       0.27350    0.27350    0.33820   1.00
C1       0.25000    0.25000    0.14480   1.00
C1       0.25000    0.14480    0.25000   1.00
C1       0.35520    0.25000    0.25000   1.00
C1       0.14480    0.25000    0.25000   1.00
C1       0.25000    0.35520    0.25000   1.00
C1       0.25000    0.25000    0.35520   1.00
O1       0.75000    0.75000    0.25000   1.00
Zn1      0.78280    0.71720    0.21720   1.00
Zn1      0.71720    0.78280    0.21720   1.00
Zn1      0.71720    0.71720    0.28280   1.00
Zn1      0.78280    0.78280    0.28280   1.00
O2       0.77350    0.72650    0.16180   1.00
O2       0.77350    0.66180    0.22650   1.00
O2       0.83820    0.72650    0.22650   1.00
O2       0.72650    0.77350    0.16180   1.00
O2       0.66180    0.77350    0.22650   1.00
O2       0.72650    0.83820    0.22650   1.00
O2       0.72650    0.66180    0.27350   1.00
O2       0.66180    0.72650    0.27350   1.00
O2       0.72650    0.72650    0.33820   1.00
O2       0.83820    0.77350    0.27350   1.00
O2       0.77350    0.83820    0.27350   1.00
O2       0.77350    0.77350    0.33820   1.00
C1       0.75000    0.75000    0.14480   1.00
C1       0.75000    0.64480    0.25000   1.00
C1       0.85520    0.75000    0.25000   1.00
C1       0.64480    0.75000    0.25000   1.00
C1       0.75000    0.85520    0.25000   1.00
C1       0.75000    0.75000    0.35520   1.00
O1       0.75000    0.25000    0.75000   1.00
Zn1      0.78280    0.21720    0.71720   1.00
Zn1      0.71720    0.28280    0.71720   1.00
Zn1      0.71720    0.21720    0.78280   1.00
Zn1      0.78280    0.28280    0.78280   1.00
O2       0.77350    0.22650    0.66180   1.00
O2       0.77350    0.16180    0.72650   1.00
O2       0.83820    0.22650    0.72650   1.00
O2       0.72650    0.27350    0.66180   1.00
O2       0.66180    0.27350    0.72650   1.00
O2       0.72650    0.33820    0.72650   1.00
O2       0.72650    0.16180    0.77350   1.00
O2       0.66180    0.22650    0.77350   1.00
O2       0.72650    0.22650    0.83820   1.00
O2       0.83820    0.27350    0.77350   1.00
O2       0.77350    0.33820    0.77350   1.00
O2       0.77350    0.27350    0.83820   1.00
C1       0.75000    0.25000    0.64480   1.00
C1       0.75000    0.14480    0.75000   1.00
C1       0.85520    0.25000    0.75000   1.00
C1       0.64480    0.25000    0.75000   1.00
C1       0.75000    0.35520    0.75000   1.00
C1       0.75000    0.25000    0.85520   1.00
O1       0.25000    0.75000    0.75000   1.00
Zn1      0.28280    0.71720    0.71720   1.00
Zn1      0.21720    0.78280    0.71720   1.00
Zn1      0.21720    0.71720    0.78280   1.00
Zn1      0.28280    0.78280    0.78280   1.00
O2       0.27350    0.72650    0.66180   1.00
O2       0.27350    0.66180    0.72650   1.00
O2       0.33820    0.72650    0.72650   1.00
O2       0.22650    0.77350    0.66180   1.00
O2       0.16180    0.77350    0.72650   1.00
O2       0.22650    0.83820    0.72650   1.00
O2       0.22650    0.66180    0.77350   1.00
O2       0.16180    0.72650    0.77350   1.00
O2       0.22650    0.72650    0.83820   1.00
O2       0.33820    0.77350    0.77350   1.00
O2       0.27350    0.83820    0.77350   1.00
O2       0.27350    0.77350    0.83820   1.00
C1       0.25000    0.75000    0.64480   1.00
C1       0.25000    0.64480    0.75000   1.00
C1       0.35520    0.75000    0.75000   1.00
C1       0.14480    0.75000    0.75000   1.00
C1       0.25000    0.85520    0.75000   1.00
C1       0.25000    0.75000    0.85520   1.00
O1       1.00000    1.00000    1.00000   1.00
Zn1      0.96720    1.03280    1.03280   1.00
Zn1      1.03280    0.96720    1.03280   1.00
Zn1      1.03280    1.03280    0.96720   1.00
Zn1      0.96720    0.96720    0.96720   1.00
O2       0.97650    1.02350    1.08820   1.00
O2       0.97650    1.08820    1.02350   1.00
O2       0.91180    1.02350    1.02350   1.00
O2       1.02350    0.97650    1.08820   1.00
O2       1.08820    0.97650    1.02350   1.00
O2       1.02350    0.91180    1.02350   1.00
O2       1.02350    1.08820    0.97650   1.00
O2       1.08820    1.02350    0.97650   1.00
O2       1.02350    1.02350    0.91180   1.00
O2       0.91180    0.97650    0.97650   1.00
O2       0.97650    0.91180    0.97650   1.00
O2       0.97650    0.97650    0.91180   1.00
C1       1.00000    1.00000    1.10520   1.00
C1       1.00000    1.10520    1.00000   1.00
C1       0.89480    1.00000    1.00000   1.00
C1       1.10520    1.00000    1.00000   1.00
C1       1.00000    0.89480    1.00000   1.00
C1       1.00000    1.00000    0.89480   1.00
O1       0.50000    0.50000    1.00000   1.00
Zn1      0.46720    0.53280    1.03280   1.00
Zn1      0.53280    0.46720    1.03280   1.00
Zn1      0.53280    0.53280    0.96720   1.00
Zn1      0.46720    0.46720    0.96720   1.00
O2       0.47650    0.52350    1.08820   1.00
O2       0.47650    0.58820    1.02350   1.00
O2       0.41180    0.52350    1.02350   1.00
O2       0.52350    0.47650    1.08820   1.00
O2       0.58820    0.47650    1.02350   1.00
O2       0.52350    0.41180    1.02350   1.00
O2       0.52350    0.58820    0.97650   1.00
O2       0.58820    0.52350    0.97650   1.00
O2       0.52350    0.52350    0.91180   1.00
O2       0.41180    0.47650    0.97650   1.00
O2       0.47650    0.41180    0.97650   1.00
O2       0.47650    0.47650    0.91180   1.00
C1       0.50000    0.50000    1.10520   1.00
C1       0.50000    0.60520    1.00000   1.00
C1       0.39480    0.50000    1.00000   1.00
C1       0.60520    0.50000    1.00000   1.00
C1       0.50000    0.39480    1.00000   1.00
C1       0.50000    0.50000    0.89480   1.00
O1       0.50000    1.00000    0.50000   1.00
Zn1      0.46720    1.03280    0.53280   1.00
Zn1      0.53280    0.96720    0.53280   1.00
Zn1      0.53280    1.03280    0.46720   1.00
Zn1      0.46720    0.96720    0.46720   1.00
O2       0.47650    1.02350    0.58820   1.00
O2       0.47650    1.08820    0.52350   1.00
O2       0.41180    1.02350    0.52350   1.00
O2       0.52350    0.97650    0.58820   1.00
O2       0.58820    0.97650    0.52350   1.00
O2       0.52350    0.91180    0.52350   1.00
O2       0.52350    1.08820    0.47650   1.00
O2       0.58820    1.02350    0.47650   1.00
O2       0.52350    1.02350    0.41180   1.00
O2       0.41180    0.97650    0.47650   1.00
O2       0.47650    0.91180    0.47650   1.00
O2       0.47650    0.97650    0.41180   1.00
C1       0.50000    1.00000    0.60520   1.00
C1       0.50000    1.10520    0.50000   1.00
C1       0.39480    1.00000    0.50000   1.00
C1       0.60520    1.00000    0.50000   1.00
C1       0.50000    0.89480    0.50000   1.00
C1       0.50000    1.00000    0.39480   1.00
O1       1.00000    0.50000    0.50000   1.00
Zn1      0.96720    0.53280    0.53280   1.00
Zn1      1.03280    0.46720    0.53280   1.00
Zn1      1.03280    0.53280    0.46720   1.00
Zn1      0.96720    0.46720    0.46720   1.00
O2       0.97650    0.52350    0.58820   1.00
O2       0.97650    0.58820    0.52350   1.00
O2       0.91180    0.52350    0.52350   1.00
O2       1.02350    0.47650    0.58820   1.00
O2       1.08820    0.47650    0.52350   1.00
O2       1.02350    0.41180    0.52350   1.00
O2       1.02350    0.58820    0.47650   1.00
O2       1.08820    0.52350    0.47650   1.00
O2       1.02350    0.52350    0.41180   1.00
O2       0.91180    0.47650    0.47650   1.00
O2       0.97650    0.41180    0.47650   1.00
O2       0.97650    0.47650    0.41180   1.00
C1       1.00000    0.50000    0.60520   1.00
C1       1.00000    0.60520    0.50000   1.00
C1       0.89480    0.50000    0.50000   1.00
C1       1.10520    0.50000    0.50000   1.00
C1       1.00000    0.39480    0.50000   1.00
C1       1.00000    0.50000    0.39480   1.00
O1       0.50000    0.50000    0.50000   1.00
Zn1      0.53280    0.46720    0.46720   1.00
Zn1      0.46720    0.53280    0.46720   1.00
Zn1      0.46720    0.46720    0.53280   1.00
Zn1      0.53280    0.53280    0.53280   1.00
O2       0.52350    0.47650    0.41180   1.00
O2       0.52350    0.41180    0.47650   1.00
O2       0.58820    0.47650    0.47650   1.00
O2       0.47650    0.52350    0.41180   1.00
O2       0.41180    0.52350    0.47650   1.00
O2       0.47650    0.58820    0.47650   1.00
O2       0.47650    0.41180    0.52350   1.00
O2       0.41180    0.47650    0.52350   1.00
O2       0.47650    0.47650    0.58820   1.00
O2       0.58820    0.52350    0.52350   1.00
O2       0.52350    0.58820    0.52350   1.00
O2       0.52350    0.52350    0.58820   1.00
C1       0.50000    0.50000    0.39480   1.00
C1       0.50000    0.39480    0.50000   1.00
C1       0.60520    0.50000    0.50000   1.00
C1       0.39480    0.50000    0.50000   1.00
C1       0.50000    0.60520    0.50000   1.00
C1       0.50000    0.50000    0.60520   1.00
O1       1.00000    1.00000    0.50000   1.00
Zn1      1.03280    0.96720    0.46720   1.00
Zn1      0.96720    1.03280    0.46720   1.00
Zn1      0.96720    0.96720    0.53280   1.00
Zn1      1.03280    1.03280    0.53280   1.00
O2       1.02350    0.97650    0.41180   1.00
O2       1.02350    0.91180    0.47650   1.00
O2       1.08820    0.97650    0.47650   1.00
O2       0.97650    1.02350    0.41180   1.00
O2       0.91180    1.02350    0.47650   1.00
O2       0.97650    1.08820    0.47650   1.00
O2       0.97650    0.91180    0.52350   1.00
O2       0.91180    0.97650    0.52350   1.00
O2       0.97650    0.97650    0.58820   1.00
O2       1.08820    1.02350    0.52350   1.00
O2       1.02350    1.08820    0.52350   1.00
O2       1.02350    1.02350    0.58820   1.00
C1       1.00000    1.00000    0.39480   1.00
C1       1.00000    0.89480    0.50000   1.00
C1       1.10520    1.00000    0.50000   1.00
C1       0.89480    1.00000    0.50000   1.00
C1       1.00000    1.10520    0.50000   1.00
C1       1.00000    1.00000    0.60520   1.00
O1       1.00000    0.50000    1.00000   1.00
Zn1      1.03280    0.46720    0.96720   1.00
Zn1      0.96720    0.53280    0.96720   1.00
Zn1      0.96720    0.46720    1.03280   1.00
Zn1      1.03280    0.53280    1.03280   1.00
O2       1.02350    0.47650    0.91180   1.00
O2       1.02350    0.41180    0.97650   1.00
O2       1.08820    0.47650    0.97650   1.00
O2       0.97650    0.52350    0.91180   1.00
O2       0.91180    0.52350    0.97650   1.00
O2       0.97650    0.58820    0.97650   1.00
O2       0.97650    0.41180    1.02350   1.00
O2       0.91180    0.47650    1.02350   1.00
O2       0.97650    0.47650    1.08820   1.00
O2       1.08820    0.52350    1.02350   1.00
O2       1.02350    0.58820    1.02350   1.00
O2       1.02350    0.52350    1.08820   1.00
C1       1.00000    0.50000    0.89480   1.00
C1       1.00000    0.39480    1.00000   1.00
C1       1.10520    0.50000    1.00000   1.00
C1       0.89480    0.50000    1.00000   1.00
C1       1.00000    0.60520    1.00000   1.00
C1       1.00000    0.50000    1.10520   1.00
O1       0.50000    1.00000    1.00000   1.00
Zn1      0.53280    0.96720    0.96720   1.00
Zn1      0.46720    1.03280    0.96720   1.00
Zn1      0.46720    0.96720    1.03280   1.00
Zn1      0.53280    1.03280    1.03280   1.00
O2       0.52350    0.97650    0.91180   1.00
O2       0.52350    0.91180    0.97650   1.00
O2       0.58820    0.97650    0.97650   1.00
O2       0.47650    1.02350    0.91180   1.00
O2       0.41180    1.02350    0.97650   1.00
O2       0.47650    1.08820    0.97650   1.00
O2       0.47650    0.91180    1.02350   1.00
O2       0.41180    0.97650    1.02350   1.00
O2       0.47650    0.97650    1.08820   1.00
O2       0.58820    1.02350    1.02350   1.00
O2       0.52350    1.08820    1.02350   1.00
O2       0.52350    1.02350    1.08820   1.00
C1       0.50000    1.00000    0.89480   1.00
C1       0.50000    0.89480    1.00000   1.00
C1       0.60520    1.00000    1.00000   1.00
C1       0.39480    1.00000    1.00000   1.00
C1       0.50000    1.10520    1.00000   1.00
C1       0.50000    1.00000    1.10520   1.00
C4       0.75116    0.75281    1.02084   1.00
C4       0.75145    0.75215    0.97912   1.00
C3       0.77943    0.77276    1.04364   1.00
C3       0.78194    0.76831    0.95616   1.00
C3       0.72141    0.73198    1.04123   1.00
C3       0.71962    0.73451    0.95886   1.00
C2       0.74966    0.75115    1.10512   1.00
C2       0.75034    0.74885    0.89488   1.00
C3       0.77886    0.77178    1.08462   1.00
C3       0.78124    0.76704    0.91519   1.00
C3       0.72091    0.73196    1.08258   1.00
C3       0.72029    0.73206    0.91762   1.00
H1       0.80119    0.78869    1.03115   1.00
H1       0.80566    0.78126    0.96852   1.00
C5       0.69225    0.71144    1.02020   1.00
C5       0.68745    0.71911    0.97980   1.00
H1       0.80023    0.78652    1.09955   1.00
H1       0.80392    0.77950    0.90010   1.00
H1       0.69877    0.71779    1.09680   1.00
H1       0.69853    0.71716    0.90368   1.00
O3       0.66766    0.68623    1.03961   1.00
O3       0.65321    0.70906    0.96099   1.00
Si1      0.67862    0.63994    1.04247   1.00
Si1      0.62071    0.74288    0.95279   1.00
C6       0.64131    0.62657    1.07538   1.00
C6       0.67075    0.61936    0.99598   1.00
C6       0.72528    0.63125    1.06253   1.00
C6       0.63169    0.79126    0.96693   1.00
C6       0.61448    0.74095    0.90198   1.00
C6       0.57686    0.72748    0.97477   1.00
C6       0.63630    0.65362    1.11194   1.00
H2       0.61504    0.63105    1.05791   1.00
C6       0.63823    0.58379    1.09147   1.00
H2       0.64915    0.63919    0.98358   1.00
C6       0.70547    0.61876    0.96634   1.00
C6       0.65212    0.57774    0.99336   1.00
H2       0.72510    0.65004    1.08831   1.00
C6       0.73401    0.58901    1.07772   1.00
C6       0.76270    0.64248    1.03849   1.00
C6       0.64196    0.79903    1.01071   1.00
C6       0.66134    0.81579    0.94225   1.00
H2       0.60394    0.80614    0.96212   1.00
H2       0.64183    0.75253    0.89051   1.00
C6       0.61041    0.69922    0.88378   1.00
C6       0.58114    0.76634    0.88393   1.00
H2       0.56446    0.70700    0.95375   1.00
C6       0.58089    0.70373    1.01336   1.00
C6       0.54448    0.75881    0.98244   1.00
H2       0.63186    0.68403    1.10346   1.00
H2       0.66191    0.65230    1.13090   1.00
H2       0.61082    0.64514    1.12917   1.00
H2       0.60762    0.57604    1.09608   1.00
H2       0.65063    0.56224    1.07178   1.00
H2       0.65275    0.58039    1.11964   1.00
H2       0.69494    0.61323    0.93672   1.00
H2       0.72079    0.64655    0.96532   1.00
H2       0.72637    0.59582    0.97352   1.00
H2       0.62420    0.57651    1.00862   1.00
H2       0.64605    0.56963    0.96308   1.00
H2       0.67161    0.55563    1.00550   1.00
H2       0.72830    0.56726    1.05514   1.00
H2       0.76436    0.58565    1.08708   1.00
H2       0.71663    0.58213    1.10332   1.00
H2       0.77192    0.61901    1.01902   1.00
H2       0.75899    0.66832    1.02068   1.00
H2       0.78705    0.64835    1.05828   1.00
H2       0.67255    0.79297    1.01688   1.00
H2       0.63687    0.82965    1.01809   1.00
H2       0.62420    0.78165    1.03048   1.00
H2       0.66083    0.84641    0.95125   1.00
H2       0.69122    0.80565    0.94574   1.00
H2       0.65427    0.81551    0.91122   1.00
H2       0.61339    0.70058    0.85202   1.00
H2       0.63324    0.67963    0.89435   1.00
H2       0.58218    0.68604    0.89035   1.00
H2       0.58240    0.79646    0.89416   1.00
H2       0.58379    0.76721    0.85212   1.00
H2       0.55239    0.75444    0.89085   1.00
H2       0.59447    0.72073    1.03656   1.00
H2       0.55261    0.69337    1.02381   1.00
H2       0.59883    0.67811    1.00834   1.00
H2       0.51690    0.74487    0.99044   1.00
H2       0.55264    0.77842    1.00622   1.00
H2       0.53870    0.77638    0.95657   1.00
C4       0.75281    1.02084    0.75116   1.00
C4       0.75215    0.97912    0.75145   1.00
C3       0.77276    1.04364    0.77943   1.00
C3       0.76831    0.95616    0.78194   1.00
C3       0.73198    1.04123    0.72141   1.00
C3       0.73451    0.95886    0.71962   1.00
C2       0.75115    1.10512    0.74966   1.00
C2       0.74885    0.89488    0.75034   1.00
C3       0.77178    1.08462    0.77886   1.00
C3       0.76704    0.91519    0.78124   1.00
C3       0.73196    1.08258    0.72091   1.00
C3       0.73206    0.91762    0.72029   1.00
H1       0.78869    1.03115    0.80119   1.00
H1       0.78126    0.96852    0.80566   1.00
C5       0.71144    1.02020    0.69225   1.00
C5       0.71911    0.97980    0.68745   1.00
H1       0.78652    1.09955    0.80023   1.00
H1       0.77950    0.90010    0.80392   1.00
H1       0.71779    1.09680    0.69877   1.00
H1       0.71716    0.90368    0.69853   1.00
O3       0.68623    1.03961    0.66766   1.00
O3       0.70906    0.96099    0.65321   1.00
Si1      0.63994    1.04247    0.67862   1.00
Si1      0.74288    0.95279    0.62071   1.00
C6       0.62657    1.07538    0.64131   1.00
C6       0.61936    0.99598    0.67075   1.00
C6       0.63125    1.06253    0.72528   1.00
C6       0.79126    0.96693    0.63169   1.00
C6       0.74095    0.90198    0.61448   1.00
C6       0.72748    0.97477    0.57686   1.00
C6       0.65362    1.11194    0.63630   1.00
H2       0.63105    1.05791    0.61504   1.00
C6       0.58379    1.09147    0.63823   1.00
H2       0.63919    0.98358    0.64915   1.00
C6       0.61876    0.96634    0.70547   1.00
C6       0.57774    0.99336    0.65212   1.00
H2       0.65004    1.08831    0.72510   1.00
C6       0.58901    1.07772    0.73401   1.00
C6       0.64248    1.03849    0.76270   1.00
C6       0.79903    1.01071    0.64196   1.00
C6       0.81579    0.94225    0.66134   1.00
H2       0.80614    0.96212    0.60394   1.00
H2       0.75253    0.89051    0.64183   1.00
C6       0.69922    0.88378    0.61041   1.00
C6       0.76634    0.88393    0.58114   1.00
H2       0.70700    0.95375    0.56446   1.00
C6       0.70373    1.01336    0.58089   1.00
C6       0.75881    0.98244    0.54448   1.00
H2       0.68403    1.10346    0.63186   1.00
H2       0.65230    1.13090    0.66191   1.00
H2       0.64514    1.12917    0.61082   1.00
H2       0.57604    1.09608    0.60762   1.00
H2       0.56224    1.07178    0.65063   1.00
H2       0.58039    1.11964    0.65275   1.00
H2       0.61323    0.93672    0.69494   1.00
H2       0.64655    0.96532    0.72079   1.00
H2       0.59582    0.97352    0.72637   1.00
H2       0.57651    1.00862    0.62420   1.00
H2       0.56963    0.96308    0.64605   1.00
H2       0.55563    1.00550    0.67161   1.00
H2       0.56726    1.05514    0.72830   1.00
H2       0.58565    1.08708    0.76436   1.00
H2       0.58213    1.10332    0.71663   1.00
H2       0.61901    1.01902    0.77192   1.00
H2       0.66832    1.02068    0.75899   1.00
H2       0.64835    1.05828    0.78705   1.00
H2       0.79297    1.01688    0.67255   1.00
H2       0.82965    1.01809    0.63687   1.00
H2       0.78165    1.03048    0.62420   1.00
H2       0.84641    0.95125    0.66083   1.00
H2       0.80565    0.94574    0.69122   1.00
H2       0.81551    0.91122    0.65427   1.00
H2       0.70058    0.85202    0.61339   1.00
H2       0.67963    0.89435    0.63324   1.00
H2       0.68604    0.89035    0.58218   1.00
H2       0.79646    0.89416    0.58240   1.00
H2       0.76721    0.85212    0.58379   1.00
H2       0.75444    0.89085    0.55239   1.00
H2       0.72073    1.03656    0.59447   1.00
H2       0.69337    1.02381    0.55261   1.00
H2       0.67811    1.00834    0.59883   1.00
H2       0.74487    0.99044    0.51690   1.00
H2       0.77842    1.00622    0.55264   1.00
H2       0.77638    0.95657    0.53870   1.00
C4       0.47916    0.75116    0.74719   1.00
C4       0.52088    0.75145    0.74785   1.00
C3       0.45636    0.77943    0.72724   1.00
C3       0.54384    0.78194    0.73169   1.00
C3       0.45877    0.72141    0.76802   1.00
C3       0.54114    0.71962    0.76549   1.00
C2       0.39488    0.74966    0.74885   1.00
C2       0.60512    0.75034    0.75115   1.00
C3       0.41538    0.77886    0.72822   1.00
C3       0.58481    0.78124    0.73296   1.00
C3       0.41742    0.72091    0.76804   1.00
C3       0.58238    0.72029    0.76794   1.00
H1       0.46885    0.80119    0.71131   1.00
H1       0.53148    0.80566    0.71874   1.00
C5       0.47980    0.69225    0.78856   1.00
C5       0.52020    0.68745    0.78089   1.00
H1       0.40045    0.80023    0.71348   1.00
H1       0.59990    0.80392    0.72050   1.00
H1       0.40320    0.69877    0.78221   1.00
H1       0.59632    0.69853    0.78284   1.00
O3       0.46039    0.66766    0.81377   1.00
O3       0.53901    0.65321    0.79094   1.00
Si1      0.45753    0.67862    0.86006   1.00
Si1      0.54721    0.62071    0.75712   1.00
C6       0.42462    0.64131    0.87343   1.00
C6       0.50402    0.67075    0.88064   1.00
C6       0.43747    0.72528    0.86875   1.00
C6       0.53307    0.63169    0.70874   1.00
C6       0.59802    0.61448    0.75905   1.00
C6       0.52523    0.57686    0.77252   1.00
C6       0.38806    0.63630    0.84638   1.00
H2       0.44209    0.61504    0.86895   1.00
C6       0.40853    0.63823    0.91621   1.00
H2       0.51642    0.64915    0.86081   1.00
C6       0.53366    0.70547    0.88124   1.00
C6       0.50664    0.65212    0.92226   1.00
H2       0.41169    0.72510    0.84996   1.00
C6       0.42228    0.73401    0.91099   1.00
C6       0.46151    0.76270    0.85752   1.00
C6       0.48929    0.64196    0.70097   1.00
C6       0.55775    0.66134    0.68421   1.00
H2       0.53788    0.60394    0.69386   1.00
H2       0.60949    0.64183    0.74747   1.00
C6       0.61622    0.61041    0.80078   1.00
C6       0.61607    0.58114    0.73366   1.00
H2       0.54625    0.56446    0.79300   1.00
C6       0.48664    0.58089    0.79627   1.00
C6       0.51756    0.54448    0.74119   1.00
H2       0.39654    0.63186    0.81597   1.00
H2       0.36910    0.66191    0.84770   1.00
H2       0.37083    0.61082    0.85486   1.00
H2       0.40392    0.60762    0.92396   1.00
H2       0.42822    0.65063    0.93776   1.00
H2       0.38036    0.65275    0.91961   1.00
H2       0.56328    0.69494    0.88677   1.00
H2       0.53468    0.72079    0.85345   1.00
H2       0.52648    0.72637    0.90418   1.00
H2       0.49138    0.62420    0.92349   1.00
H2       0.53692    0.64605    0.93037   1.00
H2       0.49450    0.67161    0.94437   1.00
H2       0.44486    0.72830    0.93274   1.00
H2       0.41292    0.76436    0.91435   1.00
H2       0.39668    0.71663    0.91787   1.00
H2       0.48098    0.77192    0.88099   1.00
H2       0.47932    0.75899    0.83168   1.00
H2       0.44172    0.78705    0.85165   1.00
H2       0.48312    0.67255    0.70703   1.00
H2       0.48191    0.63687    0.67035   1.00
H2       0.46952    0.62420    0.71835   1.00
H2       0.54875    0.66083    0.65359   1.00
H2       0.55426    0.69122    0.69435   1.00
H2       0.58878    0.65427    0.68449   1.00
H2       0.64798    0.61339    0.79942   1.00
H2       0.60565    0.63324    0.82037   1.00
H2       0.60965    0.58218    0.81396   1.00
H2       0.60584    0.58240    0.70354   1.00
H2       0.64788    0.58379    0.73279   1.00
H2       0.60915    0.55239    0.74556   1.00
H2       0.46344    0.59447    0.77927   1.00
H2       0.47619    0.55261    0.80663   1.00
H2       0.49166    0.59883    0.82189   1.00
H2       0.50956    0.51690    0.75513   1.00
H2       0.49378    0.55264    0.72158   1.00
H2       0.54343    0.53870    0.72362   1.00
C4       1.02084    0.75116    0.75281   1.00
C4       0.97912    0.75145    0.75215   1.00
C3       1.04364    0.77943    0.77276   1.00
C3       0.95616    0.78194    0.76831   1.00
C3       1.04123    0.72141    0.73198   1.00
C3       0.95886    0.71962    0.73451   1.00
C2       1.10512    0.74966    0.75115   1.00
C2       0.89488    0.75034    0.74885   1.00
C3       1.08462    0.77886    0.77178   1.00
C3       0.91519    0.78124    0.76704   1.00
C3       1.08258    0.72091    0.73196   1.00
C3       0.91762    0.72029    0.73206   1.00
H1       1.03115    0.80119    0.78869   1.00
H1       0.96852    0.80566    0.78126   1.00
C5       1.02020    0.69225    0.71144   1.00
C5       0.97980    0.68745    0.71911   1.00
H1       1.09955    0.80023    0.78652   1.00
H1       0.90010    0.80392    0.77950   1.00
H1       1.09680    0.69877    0.71779   1.00
H1       0.90368    0.69853    0.71716   1.00
O3       1.03961    0.66766    0.68623   1.00
O3       0.96099    0.65321    0.70906   1.00
Si1      1.04247    0.67862    0.63994   1.00
Si1      0.95279    0.62071    0.74288   1.00
C6       1.07538    0.64131    0.62657   1.00
C6       0.99598    0.67075    0.61936   1.00
C6       1.06253    0.72528    0.63125   1.00
C6       0.96693    0.63169    0.79126   1.00
C6       0.90198    0.61448    0.74095   1.00
C6       0.97477    0.57686    0.72748   1.00
C6       1.11194    0.63630    0.65362   1.00
H2       1.05791    0.61504    0.63105   1.00
C6       1.09147    0.63823    0.58379   1.00
H2       0.98358    0.64915    0.63919   1.00
C6       0.96634    0.70547    0.61876   1.00
C6       0.99336    0.65212    0.57774   1.00
H2       1.08831    0.72510    0.65004   1.00
C6       1.07772    0.73401    0.58901   1.00
C6       1.03849    0.76270    0.64248   1.00
C6       1.01071    0.64196    0.79903   1.00
C6       0.94225    0.66134    0.81579   1.00
H2       0.96212    0.60394    0.80614   1.00
H2       0.89051    0.64183    0.75253   1.00
C6       0.88378    0.61041    0.69922   1.00
C6       0.88393    0.58114    0.76634   1.00
H2       0.95375    0.56446    0.70700   1.00
C6       1.01336    0.58089    0.70373   1.00
C6       0.98244    0.54448    0.75881   1.00
H2       1.10346    0.63186    0.68403   1.00
H2       1.13090    0.66191    0.65230   1.00
H2       1.12917    0.61082    0.64514   1.00
H2       1.09608    0.60762    0.57604   1.00
H2       1.07178    0.65063    0.56224   1.00
H2       1.11964    0.65275    0.58039   1.00
H2       0.93672    0.69494    0.61323   1.00
H2       0.96532    0.72079    0.64655   1.00
H2       0.97352    0.72637    0.59582   1.00
H2       1.00862    0.62420    0.57651   1.00
H2       0.96308    0.64605    0.56963   1.00
H2       1.00550    0.67161    0.55563   1.00
H2       1.05514    0.72830    0.56726   1.00
H2       1.08708    0.76436    0.58565   1.00
H2       1.10332    0.71663    0.58213   1.00
H2       1.01902    0.77192    0.61901   1.00
H2       1.02068    0.75899    0.66832   1.00
H2       1.05828    0.78705    0.64835   1.00
H2       1.01688    0.67255    0.79297   1.00
H2       1.01809    0.63687    0.82965   1.00
H2       1.03048    0.62420    0.78165   1.00
H2       0.95125    0.66083    0.84641   1.00
H2       0.94574    0.69122    0.80565   1.00
H2       0.91122    0.65427    0.81551   1.00
H2       0.85202    0.61339    0.70058   1.00
H2       0.89435    0.63324    0.67963   1.00
H2       0.89035    0.58218    0.68604   1.00
H2       0.89416    0.58240    0.79646   1.00
H2       0.85212    0.58379    0.76721   1.00
H2       0.89085    0.55239    0.75444   1.00
H2       1.03656    0.59447    0.72073   1.00
H2       1.02381    0.55261    0.69337   1.00
H2       1.00834    0.59883    0.67811   1.00
H2       0.99044    0.51690    0.74487   1.00
H2       1.00622    0.55264    0.77842   1.00
H2       0.95657    0.53870    0.77638   1.00
C4       0.74719    0.47916    0.75116   1.00
C4       0.74785    0.52088    0.75145   1.00
C3       0.72724    0.45636    0.77943   1.00
C3       0.73169    0.54384    0.78194   1.00
C3       0.76802    0.45877    0.72141   1.00
C3       0.76549    0.54114    0.71962   1.00
C2       0.74885    0.39488    0.74966   1.00
C2       0.75115    0.60512    0.75034   1.00
C3       0.72822    0.41538    0.77886   1.00
C3       0.73296    0.58481    0.78124   1.00
C3       0.76804    0.41742    0.72091   1.00
C3       0.76794    0.58238    0.72029   1.00
H1       0.71131    0.46885    0.80119   1.00
H1       0.71874    0.53148    0.80566   1.00
C5       0.78856    0.47980    0.69225   1.00
C5       0.78089    0.52020    0.68745   1.00
H1       0.71348    0.40045    0.80023   1.00
H1       0.72050    0.59990    0.80392   1.00
H1       0.78221    0.40320    0.69877   1.00
H1       0.78284    0.59632    0.69853   1.00
O3       0.81377    0.46039    0.66766   1.00
O3       0.79094    0.53901    0.65321   1.00
Si1      0.86006    0.45753    0.67862   1.00
Si1      0.75712    0.54721    0.62071   1.00
C6       0.87343    0.42462    0.64131   1.00
C6       0.88064    0.50402    0.67075   1.00
C6       0.86875    0.43747    0.72528   1.00
C6       0.70874    0.53307    0.63169   1.00
C6       0.75905    0.59802    0.61448   1.00
C6       0.77252    0.52523    0.57686   1.00
C6       0.84638    0.38806    0.63630   1.00
H2       0.86895    0.44209    0.61504   1.00
C6       0.91621    0.40853    0.63823   1.00
H2       0.86081    0.51642    0.64915   1.00
C6       0.88124    0.53366    0.70547   1.00
C6       0.92226    0.50664    0.65212   1.00
H2       0.84996    0.41169    0.72510   1.00
C6       0.91099    0.42228    0.73401   1.00
C6       0.85752    0.46151    0.76270   1.00
C6       0.70097    0.48929    0.64196   1.00
C6       0.68421    0.55775    0.66134   1.00
H2       0.69386    0.53788    0.60394   1.00
H2       0.74747    0.60949    0.64183   1.00
C6       0.80078    0.61622    0.61041   1.00
C6       0.73366    0.61607    0.58114   1.00
H2       0.79300    0.54625    0.56446   1.00
C6       0.79627    0.48664    0.58089   1.00
C6       0.74119    0.51756    0.54448   1.00
H2       0.81597    0.39654    0.63186   1.00
H2       0.84770    0.36910    0.66191   1.00
H2       0.85486    0.37083    0.61082   1.00
H2       0.92396    0.40392    0.60762   1.00
H2       0.93776    0.42822    0.65063   1.00
H2       0.91961    0.38036    0.65275   1.00
H2       0.88677    0.56328    0.69494   1.00
H2       0.85345    0.53468    0.72079   1.00
H2       0.90418    0.52648    0.72637   1.00
H2       0.92349    0.49138    0.62420   1.00
H2       0.93037    0.53692    0.64605   1.00
H2       0.94437    0.49450    0.67161   1.00
H2       0.93274    0.44486    0.72830   1.00
H2       0.91435    0.41292    0.76436   1.00
H2       0.91787    0.39668    0.71663   1.00
H2       0.88099    0.48098    0.77192   1.00
H2       0.83168    0.47932    0.75899   1.00
H2       0.85165    0.44172    0.78705   1.00
H2       0.70703    0.48312    0.67255   1.00
H2       0.67035    0.48191    0.63687   1.00
H2       0.71835    0.46952    0.62420   1.00
H2       0.65359    0.54875    0.66083   1.00
H2       0.69435    0.55426    0.69122   1.00
H2       0.68449    0.58878    0.65427   1.00
H2       0.79942    0.64798    0.61339   1.00
H2       0.82037    0.60565    0.63324   1.00
H2       0.81396    0.60965    0.58218   1.00
H2       0.70354    0.60584    0.58240   1.00
H2       0.73279    0.64788    0.58379   1.00
H2       0.74556    0.60915    0.55239   1.00
H2       0.77927    0.46344    0.59447   1.00
H2       0.80663    0.47619    0.55261   1.00
H2       0.82189    0.49166    0.59883   1.00
H2       0.75513    0.50956    0.51690   1.00
H2       0.72158    0.49378    0.55264   1.00
H2       0.72362    0.54343    0.53870   1.00
C4       0.75116    0.74719    0.47916   1.00
C4       0.75145    0.74785    0.52088   1.00
C3       0.77943    0.72724    0.45636   1.00
C3       0.78194    0.73169    0.54384   1.00
C3       0.72141    0.76802    0.45877   1.00
C3       0.71962    0.76549    0.54114   1.00
C2       0.74966    0.74885    0.39488   1.00
C2       0.75034    0.75115    0.60512   1.00
C3       0.77886    0.72822    0.41538   1.00
C3       0.78124    0.73296    0.58481   1.00
C3       0.72091    0.76804    0.41742   1.00
C3       0.72029    0.76794    0.58238   1.00
H1       0.80119    0.71131    0.46885   1.00
H1       0.80566    0.71874    0.53148   1.00
C5       0.69225    0.78856    0.47980   1.00
C5       0.68745    0.78089    0.52020   1.00
H1       0.80023    0.71348    0.40045   1.00
H1       0.80392    0.72050    0.59990   1.00
H1       0.69877    0.78221    0.40320   1.00
H1       0.69853    0.78284    0.59632   1.00
O3       0.66766    0.81377    0.46039   1.00
O3       0.65321    0.79094    0.53901   1.00
Si1      0.67862    0.86006    0.45753   1.00
Si1      0.62071    0.75712    0.54721   1.00
C6       0.64131    0.87343    0.42462   1.00
C6       0.67075    0.88064    0.50402   1.00
C6       0.72528    0.86875    0.43747   1.00
C6       0.63169    0.70874    0.53307   1.00
C6       0.61448    0.75905    0.59802   1.00
C6       0.57686    0.77252    0.52523   1.00
C6       0.63630    0.84638    0.38806   1.00
H2       0.61504    0.86895    0.44209   1.00
C6       0.63823    0.91621    0.40853   1.00
H2       0.64915    0.86081    0.51642   1.00
C6       0.70547    0.88124    0.53366   1.00
C6       0.65212    0.92226    0.50664   1.00
H2       0.72510    0.84996    0.41169   1.00
C6       0.73401    0.91099    0.42228   1.00
C6       0.76270    0.85752    0.46151   1.00
C6       0.64196    0.70097    0.48929   1.00
C6       0.66134    0.68421    0.55775   1.00
H2       0.60394    0.69386    0.53788   1.00
H2       0.64183    0.74747    0.60949   1.00
C6       0.61041    0.80078    0.61622   1.00
C6       0.58114    0.73366    0.61607   1.00
H2       0.56446    0.79300    0.54625   1.00
C6       0.58089    0.79627    0.48664   1.00
C6       0.54448    0.74119    0.51756   1.00
H2       0.63186    0.81597    0.39654   1.00
H2       0.66191    0.84770    0.36910   1.00
H2       0.61082    0.85486    0.37083   1.00
H2       0.60762    0.92396    0.40392   1.00
H2       0.65063    0.93776    0.42822   1.00
H2       0.65275    0.91961    0.38036   1.00
H2       0.69494    0.88677    0.56328   1.00
H2       0.72079    0.85345    0.53468   1.00
H2       0.72637    0.90418    0.52648   1.00
H2       0.62420    0.92349    0.49138   1.00
H2       0.64605    0.93037    0.53692   1.00
H2       0.67161    0.94437    0.49450   1.00
H2       0.72830    0.93274    0.44486   1.00
H2       0.76436    0.91435    0.41292   1.00
H2       0.71663    0.91787    0.39668   1.00
H2       0.77192    0.88099    0.48098   1.00
H2       0.75899    0.83168    0.47932   1.00
H2       0.78705    0.85165    0.44172   1.00
H2       0.67255    0.70703    0.48312   1.00
H2       0.63687    0.67035    0.48191   1.00
H2       0.62420    0.71835    0.46952   1.00
H2       0.66083    0.65359    0.54875   1.00
H2       0.69122    0.69435    0.55426   1.00
H2       0.65427    0.68449    0.58878   1.00
H2       0.61339    0.79942    0.64798   1.00
H2       0.63324    0.82037    0.60565   1.00
H2       0.58218    0.81396    0.60965   1.00
H2       0.58240    0.70354    0.60584   1.00
H2       0.58379    0.73279    0.64788   1.00
H2       0.55239    0.74556    0.60915   1.00
H2       0.59447    0.77927    0.46344   1.00
H2       0.55261    0.80663    0.47619   1.00
H2       0.59883    0.82189    0.49166   1.00
H2       0.51690    0.75513    0.50956   1.00
H2       0.55264    0.72158    0.49378   1.00
H2       0.53870    0.72362    0.54343   1.00
C4       0.25116    0.25281    1.02084   1.00
C4       0.25145    0.25215    0.97912   1.00
C3       0.27943    0.27276    1.04364   1.00
C3       0.28194    0.26831    0.95616   1.00
C3       0.22141    0.23198    1.04123   1.00
C3       0.21962    0.23451    0.95886   1.00
C2       0.24966    0.25115    1.10512   1.00
C2       0.25034    0.24885    0.89488   1.00
C3       0.27886    0.27178    1.08462   1.00
C3       0.28124    0.26704    0.91519   1.00
C3       0.22091    0.23196    1.08258   1.00
C3       0.22029    0.23206    0.91762   1.00
H1       0.30119    0.28869    1.03115   1.00
H1       0.30566    0.28126    0.96852   1.00
C5       0.19225    0.21144    1.02020   1.00
C5       0.18745    0.21911    0.97980   1.00
H1       0.30023    0.28652    1.09955   1.00
H1       0.30392    0.27950    0.90010   1.00
H1       0.19877    0.21779    1.09680   1.00
H1       0.19853    0.21716    0.90368   1.00
O3       0.16766    0.18623    1.03961   1.00
O3       0.15321    0.20906    0.96099   1.00
Si1      0.17862    0.13994    1.04247   1.00
Si1      0.12071    0.24288    0.95279   1.00
C6       0.14131    0.12657    1.07538   1.00
C6       0.17075    0.11936    0.99598   1.00
C6       0.22528    0.13125    1.06253   1.00
C6       0.13169    0.29126    0.96693   1.00
C6       0.11448    0.24095    0.90198   1.00
C6       0.07686    0.22748    0.97477   1.00
C6       0.13630    0.15362    1.11194   1.00
H2       0.11504    0.13105    1.05791   1.00
C6       0.13823    0.08379    1.09147   1.00
H2       0.14915    0.13919    0.98358   1.00
C6       0.20547    0.11876    0.96634   1.00
C6       0.15212    0.07774    0.99336   1.00
H2       0.22510    0.15004    1.08831   1.00
C6       0.23401    0.08901    1.07772   1.00
C6       0.26270    0.14248    1.03849   1.00
C6       0.14196    0.29903    1.01071   1.00
C6       0.16134    0.31579    0.94225   1.00
H2       0.10394    0.30614    0.96212   1.00
H2       0.14183    0.25253    0.89051   1.00
C6       0.11041    0.19922    0.88378   1.00
C6       0.08114    0.26634    0.88393   1.00
H2       0.06446    0.20700    0.95375   1.00
C6       0.08089    0.20373    1.01336   1.00
C6       0.04448    0.25881    0.98244   1.00
H2       0.13186    0.18403    1.10346   1.00
H2       0.16191    0.15230    1.13090   1.00
H2       0.11082    0.14514    1.12917   1.00
H2       0.10762    0.07604    1.09608   1.00
H2       0.15063    0.06224    1.07178   1.00
H2       0.15275    0.08039    1.11964   1.00
H2       0.19494    0.11323    0.93672   1.00
H2       0.22079    0.14655    0.96532   1.00
H2       0.22637    0.09582    0.97352   1.00
H2       0.12420    0.07651    1.00862   1.00
H2       0.14605    0.06963    0.96308   1.00
H2       0.17161    0.05563    1.00550   1.00
H2       0.22830    0.06726    1.05514   1.00
H2       0.26436    0.08565    1.08708   1.00
H2       0.21663    0.08213    1.10332   1.00
H2       0.27192    0.11901    1.01902   1.00
H2       0.25899    0.16832    1.02068   1.00
H2       0.28705    0.14835    1.05828   1.00
H2       0.17255    0.29297    1.01688   1.00
H2       0.13687    0.32965    1.01809   1.00
H2       0.12420    0.28165    1.03048   1.00
H2       0.16083    0.34641    0.95125   1.00
H2       0.19122    0.30565    0.94574   1.00
H2       0.15427    0.31551    0.91122   1.00
H2       0.11339    0.20058    0.85202   1.00
H2       0.13324    0.17963    0.89435   1.00
H2       0.08218    0.18604    0.89035   1.00
H2       0.08240    0.29646    0.89416   1.00
H2       0.08379    0.26721    0.85212   1.00
H2       0.05239    0.25444    0.89085   1.00
H2       0.09447    0.22073    1.03656   1.00
H2       0.05261    0.19337    1.02381   1.00
H2       0.09883    0.17811    1.00834   1.00
H2       0.01690    0.24487    0.99044   1.00
H2       0.05264    0.27842    1.00622   1.00
H2       0.03870    0.27638    0.95657   1.00
C4       0.25281    0.52084    0.75116   1.00
C4       0.25215    0.47912    0.75145   1.00
C3       0.27276    0.54364    0.77943   1.00
C3       0.26831    0.45616    0.78194   1.00
C3       0.23198    0.54123    0.72141   1.00
C3       0.23451    0.45886    0.71962   1.00
C2       0.25115    0.60512    0.74966   1.00
C2       0.24885    0.39488    0.75034   1.00
C3       0.27178    0.58462    0.77886   1.00
C3       0.26704    0.41519    0.78124   1.00
C3       0.23196    0.58258    0.72091   1.00
C3       0.23206    0.41762    0.72029   1.00
H1       0.28869    0.53115    0.80119   1.00
H1       0.28126    0.46852    0.80566   1.00
C5       0.21144    0.52020    0.69225   1.00
C5       0.21911    0.47980    0.68745   1.00
H1       0.28652    0.59955    0.80023   1.00
H1       0.27950    0.40010    0.80392   1.00
H1       0.21779    0.59680    0.69877   1.00
H1       0.21716    0.40368    0.69853   1.00
O3       0.18623    0.53961    0.66766   1.00
O3       0.20906    0.46099    0.65321   1.00
Si1      0.13994    0.54247    0.67862   1.00
Si1      0.24288    0.45279    0.62071   1.00
C6       0.12657    0.57538    0.64131   1.00
C6       0.11936    0.49598    0.67075   1.00
C6       0.13125    0.56253    0.72528   1.00
C6       0.29126    0.46693    0.63169   1.00
C6       0.24095    0.40198    0.61448   1.00
C6       0.22748    0.47477    0.57686   1.00
C6       0.15362    0.61194    0.63630   1.00
H2       0.13105    0.55791    0.61504   1.00
C6       0.08379    0.59147    0.63823   1.00
H2       0.13919    0.48358    0.64915   1.00
C6       0.11876    0.46634    0.70547   1.00
C6       0.07774    0.49336    0.65212   1.00
H2       0.15004    0.58831    0.72510   1.00
C6       0.08901    0.57772    0.73401   1.00
C6       0.14248    0.53849    0.76270   1.00
C6       0.29903    0.51071    0.64196   1.00
C6       0.31579    0.44225    0.66134   1.00
H2       0.30614    0.46212    0.60394   1.00
H2       0.25253    0.39051    0.64183   1.00
C6       0.19922    0.38378    0.61041   1.00
C6       0.26634    0.38393    0.58114   1.00
H2       0.20700    0.45375    0.56446   1.00
C6       0.20373    0.51336    0.58089   1.00
C6       0.25881    0.48244    0.54448   1.00
H2       0.18403    0.60346    0.63186   1.00
H2       0.15230    0.63090    0.66191   1.00
H2       0.14514    0.62917    0.61082   1.00
H2       0.07604    0.59608    0.60762   1.00
H2       0.06224    0.57178    0.65063   1.00
H2       0.08039    0.61964    0.65275   1.00
H2       0.11323    0.43672    0.69494   1.00
H2       0.14655    0.46532    0.72079   1.00
H2       0.09582    0.47352    0.72637   1.00
H2       0.07651    0.50862    0.62420   1.00
H2       0.06963    0.46308    0.64605   1.00
H2       0.05563    0.50550    0.67161   1.00
H2       0.06726    0.55514    0.72830   1.00
H2       0.08565    0.58708    0.76436   1.00
H2       0.08213    0.60332    0.71663   1.00
H2       0.11901    0.51902    0.77192   1.00
H2       0.16832    0.52068    0.75899   1.00
H2       0.14835    0.55828    0.78705   1.00
H2       0.29297    0.51688    0.67255   1.00
H2       0.32965    0.51809    0.63687   1.00
H2       0.28165    0.53048    0.62420   1.00
H2       0.34641    0.45125    0.66083   1.00
H2       0.30565    0.44574    0.69122   1.00
H2       0.31551    0.41122    0.65427   1.00
H2       0.20058    0.35202    0.61339   1.00
H2       0.17963    0.39435    0.63324   1.00
H2       0.18604    0.39035    0.58218   1.00
H2       0.29646    0.39416    0.58240   1.00
H2       0.26721    0.35212    0.58379   1.00
H2       0.25444    0.39085    0.55239   1.00
H2       0.22073    0.53656    0.59447   1.00
H2       0.19337    0.52381    0.55261   1.00
H2       0.17811    0.50834    0.59883   1.00
H2       0.24487    0.49044    0.51690   1.00
H2       0.27842    0.50622    0.55264   1.00
H2       0.27638    0.45657    0.53870   1.00
C4       -0.02084   0.25116    0.74719   1.00
C4       0.02088    0.25145    0.74785   1.00
C3       -0.04364   0.27943    0.72724   1.00
C3       0.04384    0.28194    0.73169   1.00
C3       -0.04123   0.22141    0.76802   1.00
C3       0.04114    0.21962    0.76549   1.00
C2       -0.10512   0.24966    0.74885   1.00
C2       0.10512    0.25034    0.75115   1.00
C3       -0.08462   0.27886    0.72822   1.00
C3       0.08481    0.28124    0.73296   1.00
C3       -0.08258   0.22091    0.76804   1.00
C3       0.08238    0.22029    0.76794   1.00
H1       -0.03115   0.30119    0.71131   1.00
H1       0.03148    0.30566    0.71874   1.00
C5       -0.02020   0.19225    0.78856   1.00
C5       0.02020    0.18745    0.78089   1.00
H1       -0.09955   0.30023    0.71348   1.00
H1       0.09990    0.30392    0.72050   1.00
H1       -0.09680   0.19877    0.78221   1.00
H1       0.09632    0.19853    0.78284   1.00
O3       -0.03961   0.16766    0.81377   1.00
O3       0.03901    0.15321    0.79094   1.00
Si1      -0.04247   0.17862    0.86006   1.00
Si1      0.04721    0.12071    0.75712   1.00
C6       -0.07538   0.14131    0.87343   1.00
C6       0.00402    0.17075    0.88064   1.00
C6       -0.06253   0.22528    0.86875   1.00
C6       0.03307    0.13169    0.70874   1.00
C6       0.09802    0.11448    0.75905   1.00
C6       0.02523    0.07686    0.77252   1.00
C6       -0.11194   0.13630    0.84638   1.00
H2       -0.05791   0.11504    0.86895   1.00
C6       -0.09147   0.13823    0.91621   1.00
H2       0.01642    0.14915    0.86081   1.00
C6       0.03366    0.20547    0.88124   1.00
C6       0.00664    0.15212    0.92226   1.00
H2       -0.08831   0.22510    0.84996   1.00
C6       -0.07772   0.23401    0.91099   1.00
C6       -0.03849   0.26270    0.85752   1.00
C6       -0.01071   0.14196    0.70097   1.00
C6       0.05775    0.16134    0.68421   1.00
H2       0.03788    0.10394    0.69386   1.00
H2       0.10949    0.14183    0.74747   1.00
C6       0.11622    0.11041    0.80078   1.00
C6       0.11607    0.08114    0.73366   1.00
H2       0.04625    0.06446    0.79300   1.00
C6       -0.01336   0.08089    0.79627   1.00
C6       0.01756    0.04448    0.74119   1.00
H2       -0.10346   0.13186    0.81597   1.00
H2       -0.13090   0.16191    0.84770   1.00
H2       -0.12917   0.11082    0.85486   1.00
H2       -0.09608   0.10762    0.92396   1.00
H2       -0.07178   0.15063    0.93776   1.00
H2       -0.11964   0.15275    0.91961   1.00
H2       0.06328    0.19494    0.88677   1.00
H2       0.03468    0.22079    0.85345   1.00
H2       0.02648    0.22637    0.90418   1.00
H2       -0.00862   0.12420    0.92349   1.00
H2       0.03692    0.14605    0.93037   1.00
H2       -0.00550   0.17161    0.94437   1.00
H2       -0.05514   0.22830    0.93274   1.00
H2       -0.08708   0.26436    0.91435   1.00
H2       -0.10332   0.21663    0.91787   1.00
H2       -0.01902   0.27192    0.88099   1.00
H2       -0.02068   0.25899    0.83168   1.00
H2       -0.05828   0.28705    0.85165   1.00
H2       -0.01688   0.17255    0.70703   1.00
H2       -0.01809   0.13687    0.67035   1.00
H2       -0.03048   0.12420    0.71835   1.00
H2       0.04875    0.16083    0.65359   1.00
H2       0.05426    0.19122    0.69435   1.00
H2       0.08878    0.15427    0.68449   1.00
H2       0.14798    0.11339    0.79942   1.00
H2       0.10565    0.13324    0.82037   1.00
H2       0.10965    0.08218    0.81396   1.00
H2       0.10584    0.08240    0.70354   1.00
H2       0.14788    0.08379    0.73279   1.00
H2       0.10915    0.05239    0.74556   1.00
H2       -0.03656   0.09447    0.77927   1.00
H2       -0.02381   0.05261    0.80663   1.00
H2       -0.00834   0.09883    0.82189   1.00
H2       0.00956    0.01690    0.75513   1.00
H2       -0.00622   0.05264    0.72158   1.00
H2       0.04343    0.03870    0.72362   1.00
C4       0.52084    0.25116    0.75281   1.00
C4       0.47912    0.25145    0.75215   1.00
C3       0.54364    0.27943    0.77276   1.00
C3       0.45616    0.28194    0.76831   1.00
C3       0.54123    0.22141    0.73198   1.00
C3       0.45886    0.21962    0.73451   1.00
C2       0.60512    0.24966    0.75115   1.00
C2       0.39488    0.25034    0.74885   1.00
C3       0.58462    0.27886    0.77178   1.00
C3       0.41519    0.28124    0.76704   1.00
C3       0.58258    0.22091    0.73196   1.00
C3       0.41762    0.22029    0.73206   1.00
H1       0.53115    0.30119    0.78869   1.00
H1       0.46852    0.30566    0.78126   1.00
C5       0.52020    0.19225    0.71144   1.00
C5       0.47980    0.18745    0.71911   1.00
H1       0.59955    0.30023    0.78652   1.00
H1       0.40010    0.30392    0.77950   1.00
H1       0.59680    0.19877    0.71779   1.00
H1       0.40368    0.19853    0.71716   1.00
O3       0.53961    0.16766    0.68623   1.00
O3       0.46099    0.15321    0.70906   1.00
Si1      0.54247    0.17862    0.63994   1.00
Si1      0.45279    0.12071    0.74288   1.00
C6       0.57538    0.14131    0.62657   1.00
C6       0.49598    0.17075    0.61936   1.00
C6       0.56253    0.22528    0.63125   1.00
C6       0.46693    0.13169    0.79126   1.00
C6       0.40198    0.11448    0.74095   1.00
C6       0.47477    0.07686    0.72748   1.00
C6       0.61194    0.13630    0.65362   1.00
H2       0.55791    0.11504    0.63105   1.00
C6       0.59147    0.13823    0.58379   1.00
H2       0.48358    0.14915    0.63919   1.00
C6       0.46634    0.20547    0.61876   1.00
C6       0.49336    0.15212    0.57774   1.00
H2       0.58831    0.22510    0.65004   1.00
C6       0.57772    0.23401    0.58901   1.00
C6       0.53849    0.26270    0.64248   1.00
C6       0.51071    0.14196    0.79903   1.00
C6       0.44225    0.16134    0.81579   1.00
H2       0.46212    0.10394    0.80614   1.00
H2       0.39051    0.14183    0.75253   1.00
C6       0.38378    0.11041    0.69922   1.00
C6       0.38393    0.08114    0.76634   1.00
H2       0.45375    0.06446    0.70700   1.00
C6       0.51336    0.08089    0.70373   1.00
C6       0.48244    0.04448    0.75881   1.00
H2       0.60346    0.13186    0.68403   1.00
H2       0.63090    0.16191    0.65230   1.00
H2       0.62917    0.11082    0.64514   1.00
H2       0.59608    0.10762    0.57604   1.00
H2       0.57178    0.15063    0.56224   1.00
H2       0.61964    0.15275    0.58039   1.00
H2       0.43672    0.19494    0.61323   1.00
H2       0.46532    0.22079    0.64655   1.00
H2       0.47352    0.22637    0.59582   1.00
H2       0.50862    0.12420    0.57651   1.00
H2       0.46308    0.14605    0.56963   1.00
H2       0.50550    0.17161    0.55563   1.00
H2       0.55514    0.22830    0.56726   1.00
H2       0.58708    0.26436    0.58565   1.00
H2       0.60332    0.21663    0.58213   1.00
H2       0.51902    0.27192    0.61901   1.00
H2       0.52068    0.25899    0.66832   1.00
H2       0.55828    0.28705    0.64835   1.00
H2       0.51688    0.17255    0.79297   1.00
H2       0.51809    0.13687    0.82965   1.00
H2       0.53048    0.12420    0.78165   1.00
H2       0.45125    0.16083    0.84641   1.00
H2       0.44574    0.19122    0.80565   1.00
H2       0.41122    0.15427    0.81551   1.00
H2       0.35202    0.11339    0.70058   1.00
H2       0.39435    0.13324    0.67963   1.00
H2       0.39035    0.08218    0.68604   1.00
H2       0.39416    0.08240    0.79646   1.00
H2       0.35212    0.08379    0.76721   1.00
H2       0.39085    0.05239    0.75444   1.00
H2       0.53656    0.09447    0.72073   1.00
H2       0.52381    0.05261    0.69337   1.00
H2       0.50834    0.09883    0.67811   1.00
H2       0.49044    0.01690    0.74487   1.00
H2       0.50622    0.05264    0.77842   1.00
H2       0.45657    0.03870    0.77638   1.00
C4       0.24719    -0.02084   0.75116   1.00
C4       0.24785    0.02088    0.75145   1.00
C3       0.22724    -0.04364   0.77943   1.00
C3       0.23169    0.04384    0.78194   1.00
C3       0.26802    -0.04123   0.72141   1.00
C3       0.26549    0.04114    0.71962   1.00
C2       0.24885    -0.10512   0.74966   1.00
C2       0.25115    0.10512    0.75034   1.00
C3       0.22822    -0.08462   0.77886   1.00
C3       0.23296    0.08481    0.78124   1.00
C3       0.26804    -0.08258   0.72091   1.00
C3       0.26794    0.08238    0.72029   1.00
H1       0.21131    -0.03115   0.80119   1.00
H1       0.21874    0.03148    0.80566   1.00
C5       0.28856    -0.02020   0.69225   1.00
C5       0.28089    0.02020    0.68745   1.00
H1       0.21348    -0.09955   0.80023   1.00
H1       0.22050    0.09990    0.80392   1.00
H1       0.28221    -0.09680   0.69877   1.00
H1       0.28284    0.09632    0.69853   1.00
O3       0.31377    -0.03961   0.66766   1.00
O3       0.29094    0.03901    0.65321   1.00
Si1      0.36006    -0.04247   0.67862   1.00
Si1      0.25712    0.04721    0.62071   1.00
C6       0.37343    -0.07538   0.64131   1.00
C6       0.38064    0.00402    0.67075   1.00
C6       0.36875    -0.06253   0.72528   1.00
C6       0.20874    0.03307    0.63169   1.00
C6       0.25905    0.09802    0.61448   1.00
C6       0.27252    0.02523    0.57686   1.00
C6       0.34638    -0.11194   0.63630   1.00
H2       0.36895    -0.05791   0.61504   1.00
C6       0.41621    -0.09147   0.63823   1.00
H2       0.36081    0.01642    0.64915   1.00
C6       0.38124    0.03366    0.70547   1.00
C6       0.42226    0.00664    0.65212   1.00
H2       0.34996    -0.08831   0.72510   1.00
C6       0.41099    -0.07772   0.73401   1.00
C6       0.35752    -0.03849   0.76270   1.00
C6       0.20097    -0.01071   0.64196   1.00
C6       0.18421    0.05775    0.66134   1.00
H2       0.19386    0.03788    0.60394   1.00
H2       0.24747    0.10949    0.64183   1.00
C6       0.30078    0.11622    0.61041   1.00
C6       0.23366    0.11607    0.58114   1.00
H2       0.29300    0.04625    0.56446   1.00
C6       0.29627    -0.01336   0.58089   1.00
C6       0.24119    0.01756    0.54448   1.00
H2       0.31597    -0.10346   0.63186   1.00
H2       0.34770    -0.13090   0.66191   1.00
H2       0.35486    -0.12917   0.61082   1.00
H2       0.42396    -0.09608   0.60762   1.00
H2       0.43776    -0.07178   0.65063   1.00
H2       0.41961    -0.11964   0.65275   1.00
H2       0.38677    0.06328    0.69494   1.00
H2       0.35345    0.03468    0.72079   1.00
H2       0.40418    0.02648    0.72637   1.00
H2       0.42349    -0.00862   0.62420   1.00
H2       0.43037    0.03692    0.64605   1.00
H2       0.44437    -0.00550   0.67161   1.00
H2       0.43274    -0.05514   0.72830   1.00
H2       0.41435    -0.08708   0.76436   1.00
H2       0.41787    -0.10332   0.71663   1.00
H2       0.38099    -0.01902   0.77192   1.00
H2       0.33168    -0.02068   0.75899   1.00
H2       0.35165    -0.05828   0.78705   1.00
H2       0.20703    -0.01688   0.67255   1.00
H2       0.17035    -0.01809   0.63687   1.00
H2       0.21835    -0.03048   0.62420   1.00
H2       0.15359    0.04875    0.66083   1.00
H2       0.19435    0.05426    0.69122   1.00
H2       0.18449    0.08878    0.65427   1.00
H2       0.29942    0.14798    0.61339   1.00
H2       0.32037    0.10565    0.63324   1.00
H2       0.31396    0.10965    0.58218   1.00
H2       0.20354    0.10584    0.58240   1.00
H2       0.23279    0.14788    0.58379   1.00
H2       0.24556    0.10915    0.55239   1.00
H2       0.27927    -0.03656   0.59447   1.00
H2       0.30663    -0.02381   0.55261   1.00
H2       0.32189    -0.00834   0.59883   1.00
H2       0.25513    0.00956    0.51690   1.00
H2       0.22158    -0.00622   0.55264   1.00
H2       0.22362    0.04343    0.53870   1.00
C4       0.25116    0.24719    0.47916   1.00
C4       0.25145    0.24785    0.52088   1.00
C3       0.27943    0.22724    0.45636   1.00
C3       0.28194    0.23169    0.54384   1.00
C3       0.22141    0.26802    0.45877   1.00
C3       0.21962    0.26549    0.54114   1.00
C2       0.24966    0.24885    0.39488   1.00
C2       0.25034    0.25115    0.60512   1.00
C3       0.27886    0.22822    0.41538   1.00
C3       0.28124    0.23296    0.58481   1.00
C3       0.22091    0.26804    0.41742   1.00
C3       0.22029    0.26794    0.58238   1.00
H1       0.30119    0.21131    0.46885   1.00
H1       0.30566    0.21874    0.53148   1.00
C5       0.19225    0.28856    0.47980   1.00
C5       0.18745    0.28089    0.52020   1.00
H1       0.30023    0.21348    0.40045   1.00
H1       0.30392    0.22050    0.59990   1.00
H1       0.19877    0.28221    0.40320   1.00
H1       0.19853    0.28284    0.59632   1.00
O3       0.16766    0.31377    0.46039   1.00
O3       0.15321    0.29094    0.53901   1.00
Si1      0.17862    0.36006    0.45753   1.00
Si1      0.12071    0.25712    0.54721   1.00
C6       0.14131    0.37343    0.42462   1.00
C6       0.17075    0.38064    0.50402   1.00
C6       0.22528    0.36875    0.43747   1.00
C6       0.13169    0.20874    0.53307   1.00
C6       0.11448    0.25905    0.59802   1.00
C6       0.07686    0.27252    0.52523   1.00
C6       0.13630    0.34638    0.38806   1.00
H2       0.11504    0.36895    0.44209   1.00
C6       0.13823    0.41621    0.40853   1.00
H2       0.14915    0.36081    0.51642   1.00
C6       0.20547    0.38124    0.53366   1.00
C6       0.15212    0.42226    0.50664   1.00
H2       0.22510    0.34996    0.41169   1.00
C6       0.23401    0.41099    0.42228   1.00
C6       0.26270    0.35752    0.46151   1.00
C6       0.14196    0.20097    0.48929   1.00
C6       0.16134    0.18421    0.55775   1.00
H2       0.10394    0.19386    0.53788   1.00
H2       0.14183    0.24747    0.60949   1.00
C6       0.11041    0.30078    0.61622   1.00
C6       0.08114    0.23366    0.61607   1.00
H2       0.06446    0.29300    0.54625   1.00
C6       0.08089    0.29627    0.48664   1.00
C6       0.04448    0.24119    0.51756   1.00
H2       0.13186    0.31597    0.39654   1.00
H2       0.16191    0.34770    0.36910   1.00
H2       0.11082    0.35486    0.37083   1.00
H2       0.10762    0.42396    0.40392   1.00
H2       0.15063    0.43776    0.42822   1.00
H2       0.15275    0.41961    0.38036   1.00
H2       0.19494    0.38677    0.56328   1.00
H2       0.22079    0.35345    0.53468   1.00
H2       0.22637    0.40418    0.52648   1.00
H2       0.12420    0.42349    0.49138   1.00
H2       0.14605    0.43037    0.53692   1.00
H2       0.17161    0.44437    0.49450   1.00
H2       0.22830    0.43274    0.44486   1.00
H2       0.26436    0.41435    0.41292   1.00
H2       0.21663    0.41787    0.39668   1.00
H2       0.27192    0.38099    0.48098   1.00
H2       0.25899    0.33168    0.47932   1.00
H2       0.28705    0.35165    0.44172   1.00
H2       0.17255    0.20703    0.48312   1.00
H2       0.13687    0.17035    0.48191   1.00
H2       0.12420    0.21835    0.46952   1.00
H2       0.16083    0.15359    0.54875   1.00
H2       0.19122    0.19435    0.55426   1.00
H2       0.15427    0.18449    0.58878   1.00
H2       0.11339    0.29942    0.64798   1.00
H2       0.13324    0.32037    0.60565   1.00
H2       0.08218    0.31396    0.60965   1.00
H2       0.08240    0.20354    0.60584   1.00
H2       0.08379    0.23279    0.64788   1.00
H2       0.05239    0.24556    0.60915   1.00
H2       0.09447    0.27927    0.46344   1.00
H2       0.05261    0.30663    0.47619   1.00
H2       0.09883    0.32189    0.49166   1.00
H2       0.01690    0.25513    0.50956   1.00
H2       0.05264    0.22158    0.49378   1.00
H2       0.03870    0.22362    0.54343   1.00
C4       0.25116    0.75281    0.52084   1.00
C4       0.25145    0.75215    0.47912   1.00
C3       0.27943    0.77276    0.54364   1.00
C3       0.28194    0.76831    0.45616   1.00
C3       0.22141    0.73198    0.54123   1.00
C3       0.21962    0.73451    0.45886   1.00
C2       0.24966    0.75115    0.60512   1.00
C2       0.25034    0.74885    0.39488   1.00
C3       0.27886    0.77178    0.58462   1.00
C3       0.28124    0.76704    0.41519   1.00
C3       0.22091    0.73196    0.58258   1.00
C3       0.22029    0.73206    0.41762   1.00
H1       0.30119    0.78869    0.53115   1.00
H1       0.30566    0.78126    0.46852   1.00
C5       0.19225    0.71144    0.52020   1.00
C5       0.18745    0.71911    0.47980   1.00
H1       0.30023    0.78652    0.59955   1.00
H1       0.30392    0.77950    0.40010   1.00
H1       0.19877    0.71779    0.59680   1.00
H1       0.19853    0.71716    0.40368   1.00
O3       0.16766    0.68623    0.53961   1.00
O3       0.15321    0.70906    0.46099   1.00
Si1      0.17862    0.63994    0.54247   1.00
Si1      0.12071    0.74288    0.45279   1.00
C6       0.14131    0.62657    0.57538   1.00
C6       0.17075    0.61936    0.49598   1.00
C6       0.22528    0.63125    0.56253   1.00
C6       0.13169    0.79126    0.46693   1.00
C6       0.11448    0.74095    0.40198   1.00
C6       0.07686    0.72748    0.47477   1.00
C6       0.13630    0.65362    0.61194   1.00
H2       0.11504    0.63105    0.55791   1.00
C6       0.13823    0.58379    0.59147   1.00
H2       0.14915    0.63919    0.48358   1.00
C6       0.20547    0.61876    0.46634   1.00
C6       0.15212    0.57774    0.49336   1.00
H2       0.22510    0.65004    0.58831   1.00
C6       0.23401    0.58901    0.57772   1.00
C6       0.26270    0.64248    0.53849   1.00
C6       0.14196    0.79903    0.51071   1.00
C6       0.16134    0.81579    0.44225   1.00
H2       0.10394    0.80614    0.46212   1.00
H2       0.14183    0.75253    0.39051   1.00
C6       0.11041    0.69922    0.38378   1.00
C6       0.08114    0.76634    0.38393   1.00
H2       0.06446    0.70700    0.45375   1.00
C6       0.08089    0.70373    0.51336   1.00
C6       0.04448    0.75881    0.48244   1.00
H2       0.13186    0.68403    0.60346   1.00
H2       0.16191    0.65230    0.63090   1.00
H2       0.11082    0.64514    0.62917   1.00
H2       0.10762    0.57604    0.59608   1.00
H2       0.15063    0.56224    0.57178   1.00
H2       0.15275    0.58039    0.61964   1.00
H2       0.19494    0.61323    0.43672   1.00
H2       0.22079    0.64655    0.46532   1.00
H2       0.22637    0.59582    0.47352   1.00
H2       0.12420    0.57651    0.50862   1.00
H2       0.14605    0.56963    0.46308   1.00
H2       0.17161    0.55563    0.50550   1.00
H2       0.22830    0.56726    0.55514   1.00
H2       0.26436    0.58565    0.58708   1.00
H2       0.21663    0.58213    0.60332   1.00
H2       0.27192    0.61901    0.51902   1.00
H2       0.25899    0.66832    0.52068   1.00
H2       0.28705    0.64835    0.55828   1.00
H2       0.17255    0.79297    0.51688   1.00
H2       0.13687    0.82965    0.51809   1.00
H2       0.12420    0.78165    0.53048   1.00
H2       0.16083    0.84641    0.45125   1.00
H2       0.19122    0.80565    0.44574   1.00
H2       0.15427    0.81551    0.41122   1.00
H2       0.11339    0.70058    0.35202   1.00
H2       0.13324    0.67963    0.39435   1.00
H2       0.08218    0.68604    0.39035   1.00
H2       0.08240    0.79646    0.39416   1.00
H2       0.08379    0.76721    0.35212   1.00
H2       0.05239    0.75444    0.39085   1.00
H2       0.09447    0.72073    0.53656   1.00
H2       0.05261    0.69337    0.52381   1.00
H2       0.09883    0.67811    0.50834   1.00
H2       0.01690    0.74487    0.49044   1.00
H2       0.05264    0.77842    0.50622   1.00
H2       0.03870    0.77638    0.45657   1.00
C4       0.25281    1.02084    0.25116   1.00
C4       0.25215    0.97912    0.25145   1.00
C3       0.27276    1.04364    0.27943   1.00
C3       0.26831    0.95616    0.28194   1.00
C3       0.23198    1.04123    0.22141   1.00
C3       0.23451    0.95886    0.21962   1.00
C2       0.25115    1.10512    0.24966   1.00
C2       0.24885    0.89488    0.25034   1.00
C3       0.27178    1.08462    0.27886   1.00
C3       0.26704    0.91519    0.28124   1.00
C3       0.23196    1.08258    0.22091   1.00
C3       0.23206    0.91762    0.22029   1.00
H1       0.28869    1.03115    0.30119   1.00
H1       0.28126    0.96852    0.30566   1.00
C5       0.21144    1.02020    0.19225   1.00
C5       0.21911    0.97980    0.18745   1.00
H1       0.28652    1.09955    0.30023   1.00
H1       0.27950    0.90010    0.30392   1.00
H1       0.21779    1.09680    0.19877   1.00
H1       0.21716    0.90368    0.19853   1.00
O3       0.18623    1.03961    0.16766   1.00
O3       0.20906    0.96099    0.15321   1.00
Si1      0.13994    1.04247    0.17862   1.00
Si1      0.24288    0.95279    0.12071   1.00
C6       0.12657    1.07538    0.14131   1.00
C6       0.11936    0.99598    0.17075   1.00
C6       0.13125    1.06253    0.22528   1.00
C6       0.29126    0.96693    0.13169   1.00
C6       0.24095    0.90198    0.11448   1.00
C6       0.22748    0.97477    0.07686   1.00
C6       0.15362    1.11194    0.13630   1.00
H2       0.13105    1.05791    0.11504   1.00
C6       0.08379    1.09147    0.13823   1.00
H2       0.13919    0.98358    0.14915   1.00
C6       0.11876    0.96634    0.20547   1.00
C6       0.07774    0.99336    0.15212   1.00
H2       0.15004    1.08831    0.22510   1.00
C6       0.08901    1.07772    0.23401   1.00
C6       0.14248    1.03849    0.26270   1.00
C6       0.29903    1.01071    0.14196   1.00
C6       0.31579    0.94225    0.16134   1.00
H2       0.30614    0.96212    0.10394   1.00
H2       0.25253    0.89051    0.14183   1.00
C6       0.19922    0.88378    0.11041   1.00
C6       0.26634    0.88393    0.08114   1.00
H2       0.20700    0.95375    0.06446   1.00
C6       0.20373    1.01336    0.08089   1.00
C6       0.25881    0.98244    0.04448   1.00
H2       0.18403    1.10346    0.13186   1.00
H2       0.15230    1.13090    0.16191   1.00
H2       0.14514    1.12917    0.11082   1.00
H2       0.07604    1.09608    0.10762   1.00
H2       0.06224    1.07178    0.15063   1.00
H2       0.08039    1.11964    0.15275   1.00
H2       0.11323    0.93672    0.19494   1.00
H2       0.14655    0.96532    0.22079   1.00
H2       0.09582    0.97352    0.22637   1.00
H2       0.07651    1.00862    0.12420   1.00
H2       0.06963    0.96308    0.14605   1.00
H2       0.05563    1.00550    0.17161   1.00
H2       0.06726    1.05514    0.22830   1.00
H2       0.08565    1.08708    0.26436   1.00
H2       0.08213    1.10332    0.21663   1.00
H2       0.11901    1.01902    0.27192   1.00
H2       0.16832    1.02068    0.25899   1.00
H2       0.14835    1.05828    0.28705   1.00
H2       0.29297    1.01688    0.17255   1.00
H2       0.32965    1.01809    0.13687   1.00
H2       0.28165    1.03048    0.12420   1.00
H2       0.34641    0.95125    0.16083   1.00
H2       0.30565    0.94574    0.19122   1.00
H2       0.31551    0.91122    0.15427   1.00
H2       0.20058    0.85202    0.11339   1.00
H2       0.17963    0.89435    0.13324   1.00
H2       0.18604    0.89035    0.08218   1.00
H2       0.29646    0.89416    0.08240   1.00
H2       0.26721    0.85212    0.08379   1.00
H2       0.25444    0.89085    0.05239   1.00
H2       0.22073    1.03656    0.09447   1.00
H2       0.19337    1.02381    0.05261   1.00
H2       0.17811    1.00834    0.09883   1.00
H2       0.24487    0.99044    0.01690   1.00
H2       0.27842    1.00622    0.05264   1.00
H2       0.27638    0.95657    0.03870   1.00
C4       -0.02084   0.75116    0.24719   1.00
C4       0.02088    0.75145    0.24785   1.00
C3       -0.04364   0.77943    0.22724   1.00
C3       0.04384    0.78194    0.23169   1.00
C3       -0.04123   0.72141    0.26802   1.00
C3       0.04114    0.71962    0.26549   1.00
C2       -0.10512   0.74966    0.24885   1.00
C2       0.10512    0.75034    0.25115   1.00
C3       -0.08462   0.77886    0.22822   1.00
C3       0.08481    0.78124    0.23296   1.00
C3       -0.08258   0.72091    0.26804   1.00
C3       0.08238    0.72029    0.26794   1.00
H1       -0.03115   0.80119    0.21131   1.00
H1       0.03148    0.80566    0.21874   1.00
C5       -0.02020   0.69225    0.28856   1.00
C5       0.02020    0.68745    0.28089   1.00
H1       -0.09955   0.80023    0.21348   1.00
H1       0.09990    0.80392    0.22050   1.00
H1       -0.09680   0.69877    0.28221   1.00
H1       0.09632    0.69853    0.28284   1.00
O3       -0.03961   0.66766    0.31377   1.00
O3       0.03901    0.65321    0.29094   1.00
Si1      -0.04247   0.67862    0.36006   1.00
Si1      0.04721    0.62071    0.25712   1.00
C6       -0.07538   0.64131    0.37343   1.00
C6       0.00402    0.67075    0.38064   1.00
C6       -0.06253   0.72528    0.36875   1.00
C6       0.03307    0.63169    0.20874   1.00
C6       0.09802    0.61448    0.25905   1.00
C6       0.02523    0.57686    0.27252   1.00
C6       -0.11194   0.63630    0.34638   1.00
H2       -0.05791   0.61504    0.36895   1.00
C6       -0.09147   0.63823    0.41621   1.00
H2       0.01642    0.64915    0.36081   1.00
C6       0.03366    0.70547    0.38124   1.00
C6       0.00664    0.65212    0.42226   1.00
H2       -0.08831   0.72510    0.34996   1.00
C6       -0.07772   0.73401    0.41099   1.00
C6       -0.03849   0.76270    0.35752   1.00
C6       -0.01071   0.64196    0.20097   1.00
C6       0.05775    0.66134    0.18421   1.00
H2       0.03788    0.60394    0.19386   1.00
H2       0.10949    0.64183    0.24747   1.00
C6       0.11622    0.61041    0.30078   1.00
C6       0.11607    0.58114    0.23366   1.00
H2       0.04625    0.56446    0.29300   1.00
C6       -0.01336   0.58089    0.29627   1.00
C6       0.01756    0.54448    0.24119   1.00
H2       -0.10346   0.63186    0.31597   1.00
H2       -0.13090   0.66191    0.34770   1.00
H2       -0.12917   0.61082    0.35486   1.00
H2       -0.09608   0.60762    0.42396   1.00
H2       -0.07178   0.65063    0.43776   1.00
H2       -0.11964   0.65275    0.41961   1.00
H2       0.06328    0.69494    0.38677   1.00
H2       0.03468    0.72079    0.35345   1.00
H2       0.02648    0.72637    0.40418   1.00
H2       -0.00862   0.62420    0.42349   1.00
H2       0.03692    0.64605    0.43037   1.00
H2       -0.00550   0.67161    0.44437   1.00
H2       -0.05514   0.72830    0.43274   1.00
H2       -0.08708   0.76436    0.41435   1.00
H2       -0.10332   0.71663    0.41787   1.00
H2       -0.01902   0.77192    0.38099   1.00
H2       -0.02068   0.75899    0.33168   1.00
H2       -0.05828   0.78705    0.35165   1.00
H2       -0.01688   0.67255    0.20703   1.00
H2       -0.01809   0.63687    0.17035   1.00
H2       -0.03048   0.62420    0.21835   1.00
H2       0.04875    0.66083    0.15359   1.00
H2       0.05426    0.69122    0.19435   1.00
H2       0.08878    0.65427    0.18449   1.00
H2       0.14798    0.61339    0.29942   1.00
H2       0.10565    0.63324    0.32037   1.00
H2       0.10965    0.58218    0.31396   1.00
H2       0.10584    0.58240    0.20354   1.00
H2       0.14788    0.58379    0.23279   1.00
H2       0.10915    0.55239    0.24556   1.00
H2       -0.03656   0.59447    0.27927   1.00
H2       -0.02381   0.55261    0.30663   1.00
H2       -0.00834   0.59883    0.32189   1.00
H2       0.00956    0.51690    0.25513   1.00
H2       -0.00622   0.55264    0.22158   1.00
H2       0.04343    0.53870    0.22362   1.00
C4       0.52084    0.75116    0.25281   1.00
C4       0.47912    0.75145    0.25215   1.00
C3       0.54364    0.77943    0.27276   1.00
C3       0.45616    0.78194    0.26831   1.00
C3       0.54123    0.72141    0.23198   1.00
C3       0.45886    0.71962    0.23451   1.00
C2       0.60512    0.74966    0.25115   1.00
C2       0.39488    0.75034    0.24885   1.00
C3       0.58462    0.77886    0.27178   1.00
C3       0.41519    0.78124    0.26704   1.00
C3       0.58258    0.72091    0.23196   1.00
C3       0.41762    0.72029    0.23206   1.00
H1       0.53115    0.80119    0.28869   1.00
H1       0.46852    0.80566    0.28126   1.00
C5       0.52020    0.69225    0.21144   1.00
C5       0.47980    0.68745    0.21911   1.00
H1       0.59955    0.80023    0.28652   1.00
H1       0.40010    0.80392    0.27950   1.00
H1       0.59680    0.69877    0.21779   1.00
H1       0.40368    0.69853    0.21716   1.00
O3       0.53961    0.66766    0.18623   1.00
O3       0.46099    0.65321    0.20906   1.00
Si1      0.54247    0.67862    0.13994   1.00
Si1      0.45279    0.62071    0.24288   1.00
C6       0.57538    0.64131    0.12657   1.00
C6       0.49598    0.67075    0.11936   1.00
C6       0.56253    0.72528    0.13125   1.00
C6       0.46693    0.63169    0.29126   1.00
C6       0.40198    0.61448    0.24095   1.00
C6       0.47477    0.57686    0.22748   1.00
C6       0.61194    0.63630    0.15362   1.00
H2       0.55791    0.61504    0.13105   1.00
C6       0.59147    0.63823    0.08379   1.00
H2       0.48358    0.64915    0.13919   1.00
C6       0.46634    0.70547    0.11876   1.00
C6       0.49336    0.65212    0.07774   1.00
H2       0.58831    0.72510    0.15004   1.00
C6       0.57772    0.73401    0.08901   1.00
C6       0.53849    0.76270    0.14248   1.00
C6       0.51071    0.64196    0.29903   1.00
C6       0.44225    0.66134    0.31579   1.00
H2       0.46212    0.60394    0.30614   1.00
H2       0.39051    0.64183    0.25253   1.00
C6       0.38378    0.61041    0.19922   1.00
C6       0.38393    0.58114    0.26634   1.00
H2       0.45375    0.56446    0.20700   1.00
C6       0.51336    0.58089    0.20373   1.00
C6       0.48244    0.54448    0.25881   1.00
H2       0.60346    0.63186    0.18403   1.00
H2       0.63090    0.66191    0.15230   1.00
H2       0.62917    0.61082    0.14514   1.00
H2       0.59608    0.60762    0.07604   1.00
H2       0.57178    0.65063    0.06224   1.00
H2       0.61964    0.65275    0.08039   1.00
H2       0.43672    0.69494    0.11323   1.00
H2       0.46532    0.72079    0.14655   1.00
H2       0.47352    0.72637    0.09582   1.00
H2       0.50862    0.62420    0.07651   1.00
H2       0.46308    0.64605    0.06963   1.00
H2       0.50550    0.67161    0.05563   1.00
H2       0.55514    0.72830    0.06726   1.00
H2       0.58708    0.76436    0.08565   1.00
H2       0.60332    0.71663    0.08213   1.00
H2       0.51902    0.77192    0.11901   1.00
H2       0.52068    0.75899    0.16832   1.00
H2       0.55828    0.78705    0.14835   1.00
H2       0.51688    0.67255    0.29297   1.00
H2       0.51809    0.63687    0.32965   1.00
H2       0.53048    0.62420    0.28165   1.00
H2       0.45125    0.66083    0.34641   1.00
H2       0.44574    0.69122    0.30565   1.00
H2       0.41122    0.65427    0.31551   1.00
H2       0.35202    0.61339    0.20058   1.00
H2       0.39435    0.63324    0.17963   1.00
H2       0.39035    0.58218    0.18604   1.00
H2       0.39416    0.58240    0.29646   1.00
H2       0.35212    0.58379    0.26721   1.00
H2       0.39085    0.55239    0.25444   1.00
H2       0.53656    0.59447    0.22073   1.00
H2       0.52381    0.55261    0.19337   1.00
H2       0.50834    0.59883    0.17811   1.00
H2       0.49044    0.51690    0.24487   1.00
H2       0.50622    0.55264    0.27842   1.00
H2       0.45657    0.53870    0.27638   1.00
C4       0.24719    0.47916    0.25116   1.00
C4       0.24785    0.52088    0.25145   1.00
C3       0.22724    0.45636    0.27943   1.00
C3       0.23169    0.54384    0.28194   1.00
C3       0.26802    0.45877    0.22141   1.00
C3       0.26549    0.54114    0.21962   1.00
C2       0.24885    0.39488    0.24966   1.00
C2       0.25115    0.60512    0.25034   1.00
C3       0.22822    0.41538    0.27886   1.00
C3       0.23296    0.58481    0.28124   1.00
C3       0.26804    0.41742    0.22091   1.00
C3       0.26794    0.58238    0.22029   1.00
H1       0.21131    0.46885    0.30119   1.00
H1       0.21874    0.53148    0.30566   1.00
C5       0.28856    0.47980    0.19225   1.00
C5       0.28089    0.52020    0.18745   1.00
H1       0.21348    0.40045    0.30023   1.00
H1       0.22050    0.59990    0.30392   1.00
H1       0.28221    0.40320    0.19877   1.00
H1       0.28284    0.59632    0.19853   1.00
O3       0.31377    0.46039    0.16766   1.00
O3       0.29094    0.53901    0.15321   1.00
Si1      0.36006    0.45753    0.17862   1.00
Si1      0.25712    0.54721    0.12071   1.00
C6       0.37343    0.42462    0.14131   1.00
C6       0.38064    0.50402    0.17075   1.00
C6       0.36875    0.43747    0.22528   1.00
C6       0.20874    0.53307    0.13169   1.00
C6       0.25905    0.59802    0.11448   1.00
C6       0.27252    0.52523    0.07686   1.00
C6       0.34638    0.38806    0.13630   1.00
H2       0.36895    0.44209    0.11504   1.00
C6       0.41621    0.40853    0.13823   1.00
H2       0.36081    0.51642    0.14915   1.00
C6       0.38124    0.53366    0.20547   1.00
C6       0.42226    0.50664    0.15212   1.00
H2       0.34996    0.41169    0.22510   1.00
C6       0.41099    0.42228    0.23401   1.00
C6       0.35752    0.46151    0.26270   1.00
C6       0.20097    0.48929    0.14196   1.00
C6       0.18421    0.55775    0.16134   1.00
H2       0.19386    0.53788    0.10394   1.00
H2       0.24747    0.60949    0.14183   1.00
C6       0.30078    0.61622    0.11041   1.00
C6       0.23366    0.61607    0.08114   1.00
H2       0.29300    0.54625    0.06446   1.00
C6       0.29627    0.48664    0.08089   1.00
C6       0.24119    0.51756    0.04448   1.00
H2       0.31597    0.39654    0.13186   1.00
H2       0.34770    0.36910    0.16191   1.00
H2       0.35486    0.37083    0.11082   1.00
H2       0.42396    0.40392    0.10762   1.00
H2       0.43776    0.42822    0.15063   1.00
H2       0.41961    0.38036    0.15275   1.00
H2       0.38677    0.56328    0.19494   1.00
H2       0.35345    0.53468    0.22079   1.00
H2       0.40418    0.52648    0.22637   1.00
H2       0.42349    0.49138    0.12420   1.00
H2       0.43037    0.53692    0.14605   1.00
H2       0.44437    0.49450    0.17161   1.00
H2       0.43274    0.44486    0.22830   1.00
H2       0.41435    0.41292    0.26436   1.00
H2       0.41787    0.39668    0.21663   1.00
H2       0.38099    0.48098    0.27192   1.00
H2       0.33168    0.47932    0.25899   1.00
H2       0.35165    0.44172    0.28705   1.00
H2       0.20703    0.48312    0.17255   1.00
H2       0.17035    0.48191    0.13687   1.00
H2       0.21835    0.46952    0.12420   1.00
H2       0.15359    0.54875    0.16083   1.00
H2       0.19435    0.55426    0.19122   1.00
H2       0.18449    0.58878    0.15427   1.00
H2       0.29942    0.64798    0.11339   1.00
H2       0.32037    0.60565    0.13324   1.00
H2       0.31396    0.60965    0.08218   1.00
H2       0.20354    0.60584    0.08240   1.00
H2       0.23279    0.64788    0.08379   1.00
H2       0.24556    0.60915    0.05239   1.00
H2       0.27927    0.46344    0.09447   1.00
H2       0.30663    0.47619    0.05261   1.00
H2       0.32189    0.49166    0.09883   1.00
H2       0.25513    0.50956    0.01690   1.00
H2       0.22158    0.49378    0.05264   1.00
H2       0.22362    0.54343    0.03870   1.00
C4       0.25116    0.74719    -0.02084   1.00
C4       0.25145    0.74785    0.02088   1.00
C3       0.27943    0.72724    -0.04364   1.00
C3       0.28194    0.73169    0.04384   1.00
C3       0.22141    0.76802    -0.04123   1.00
C3       0.21962    0.76549    0.04114   1.00
C2       0.24966    0.74885    -0.10512   1.00
C2       0.25034    0.75115    0.10512   1.00
C3       0.27886    0.72822    -0.08462   1.00
C3       0.28124    0.73296    0.08481   1.00
C3       0.22091    0.76804    -0.08258   1.00
C3       0.22029    0.76794    0.08238   1.00
H1       0.30119    0.71131    -0.03115   1.00
H1       0.30566    0.71874    0.03148   1.00
C5       0.19225    0.78856    -0.02020   1.00
C5       0.18745    0.78089    0.02020   1.00
H1       0.30023    0.71348    -0.09955   1.00
H1       0.30392    0.72050    0.09990   1.00
H1       0.19877    0.78221    -0.09680   1.00
H1       0.19853    0.78284    0.09632   1.00
O3       0.16766    0.81377    -0.03961   1.00
O3       0.15321    0.79094    0.03901   1.00
Si1      0.17862    0.86006    -0.04247   1.00
Si1      0.12071    0.75712    0.04721   1.00
C6       0.14131    0.87343    -0.07538   1.00
C6       0.17075    0.88064    0.00402   1.00
C6       0.22528    0.86875    -0.06253   1.00
C6       0.13169    0.70874    0.03307   1.00
C6       0.11448    0.75905    0.09802   1.00
C6       0.07686    0.77252    0.02523   1.00
C6       0.13630    0.84638    -0.11194   1.00
H2       0.11504    0.86895    -0.05791   1.00
C6       0.13823    0.91621    -0.09147   1.00
H2       0.14915    0.86081    0.01642   1.00
C6       0.20547    0.88124    0.03366   1.00
C6       0.15212    0.92226    0.00664   1.00
H2       0.22510    0.84996    -0.08831   1.00
C6       0.23401    0.91099    -0.07772   1.00
C6       0.26270    0.85752    -0.03849   1.00
C6       0.14196    0.70097    -0.01071   1.00
C6       0.16134    0.68421    0.05775   1.00
H2       0.10394    0.69386    0.03788   1.00
H2       0.14183    0.74747    0.10949   1.00
C6       0.11041    0.80078    0.11622   1.00
C6       0.08114    0.73366    0.11607   1.00
H2       0.06446    0.79300    0.04625   1.00
C6       0.08089    0.79627    -0.01336   1.00
C6       0.04448    0.74119    0.01756   1.00
H2       0.13186    0.81597    -0.10346   1.00
H2       0.16191    0.84770    -0.13090   1.00
H2       0.11082    0.85486    -0.12917   1.00
H2       0.10762    0.92396    -0.09608   1.00
H2       0.15063    0.93776    -0.07178   1.00
H2       0.15275    0.91961    -0.11964   1.00
H2       0.19494    0.88677    0.06328   1.00
H2       0.22079    0.85345    0.03468   1.00
H2       0.22637    0.90418    0.02648   1.00
H2       0.12420    0.92349    -0.00862   1.00
H2       0.14605    0.93037    0.03692   1.00
H2       0.17161    0.94437    -0.00550   1.00
H2       0.22830    0.93274    -0.05514   1.00
H2       0.26436    0.91435    -0.08708   1.00
H2       0.21663    0.91787    -0.10332   1.00
H2       0.27192    0.88099    -0.01902   1.00
H2       0.25899    0.83168    -0.02068   1.00
H2       0.28705    0.85165    -0.05828   1.00
H2       0.17255    0.70703    -0.01688   1.00
H2       0.13687    0.67035    -0.01809   1.00
H2       0.12420    0.71835    -0.03048   1.00
H2       0.16083    0.65359    0.04875   1.00
H2       0.19122    0.69435    0.05426   1.00
H2       0.15427    0.68449    0.08878   1.00
H2       0.11339    0.79942    0.14798   1.00
H2       0.13324    0.82037    0.10565   1.00
H2       0.08218    0.81396    0.10965   1.00
H2       0.08240    0.70354    0.10584   1.00
H2       0.08379    0.73279    0.14788   1.00
H2       0.05239    0.74556    0.10915   1.00
H2       0.09447    0.77927    -0.03656   1.00
H2       0.05261    0.80663    -0.02381   1.00
H2       0.09883    0.82189    -0.00834   1.00
H2       0.01690    0.75513    0.00956   1.00
H2       0.05264    0.72158    -0.00622   1.00
H2       0.03870    0.72362    0.04343   1.00
C4       0.75116    0.25281    0.52084   1.00
C4       0.75145    0.25215    0.47912   1.00
C3       0.77943    0.27276    0.54364   1.00
C3       0.78194    0.26831    0.45616   1.00
C3       0.72141    0.23198    0.54123   1.00
C3       0.71962    0.23451    0.45886   1.00
C2       0.74966    0.25115    0.60512   1.00
C2       0.75034    0.24885    0.39488   1.00
C3       0.77886    0.27178    0.58462   1.00
C3       0.78124    0.26704    0.41519   1.00
C3       0.72091    0.23196    0.58258   1.00
C3       0.72029    0.23206    0.41762   1.00
H1       0.80119    0.28869    0.53115   1.00
H1       0.80566    0.28126    0.46852   1.00
C5       0.69225    0.21144    0.52020   1.00
C5       0.68745    0.21911    0.47980   1.00
H1       0.80023    0.28652    0.59955   1.00
H1       0.80392    0.27950    0.40010   1.00
H1       0.69877    0.21779    0.59680   1.00
H1       0.69853    0.21716    0.40368   1.00
O3       0.66766    0.18623    0.53961   1.00
O3       0.65321    0.20906    0.46099   1.00
Si1      0.67862    0.13994    0.54247   1.00
Si1      0.62071    0.24288    0.45279   1.00
C6       0.64131    0.12657    0.57538   1.00
C6       0.67075    0.11936    0.49598   1.00
C6       0.72528    0.13125    0.56253   1.00
C6       0.63169    0.29126    0.46693   1.00
C6       0.61448    0.24095    0.40198   1.00
C6       0.57686    0.22748    0.47477   1.00
C6       0.63630    0.15362    0.61194   1.00
H2       0.61504    0.13105    0.55791   1.00
C6       0.63823    0.08379    0.59147   1.00
H2       0.64915    0.13919    0.48358   1.00
C6       0.70547    0.11876    0.46634   1.00
C6       0.65212    0.07774    0.49336   1.00
H2       0.72510    0.15004    0.58831   1.00
C6       0.73401    0.08901    0.57772   1.00
C6       0.76270    0.14248    0.53849   1.00
C6       0.64196    0.29903    0.51071   1.00
C6       0.66134    0.31579    0.44225   1.00
H2       0.60394    0.30614    0.46212   1.00
H2       0.64183    0.25253    0.39051   1.00
C6       0.61041    0.19922    0.38378   1.00
C6       0.58114    0.26634    0.38393   1.00
H2       0.56446    0.20700    0.45375   1.00
C6       0.58089    0.20373    0.51336   1.00
C6       0.54448    0.25881    0.48244   1.00
H2       0.63186    0.18403    0.60346   1.00
H2       0.66191    0.15230    0.63090   1.00
H2       0.61082    0.14514    0.62917   1.00
H2       0.60762    0.07604    0.59608   1.00
H2       0.65063    0.06224    0.57178   1.00
H2       0.65275    0.08039    0.61964   1.00
H2       0.69494    0.11323    0.43672   1.00
H2       0.72079    0.14655    0.46532   1.00
H2       0.72637    0.09582    0.47352   1.00
H2       0.62420    0.07651    0.50862   1.00
H2       0.64605    0.06963    0.46308   1.00
H2       0.67161    0.05563    0.50550   1.00
H2       0.72830    0.06726    0.55514   1.00
H2       0.76436    0.08565    0.58708   1.00
H2       0.71663    0.08213    0.60332   1.00
H2       0.77192    0.11901    0.51902   1.00
H2       0.75899    0.16832    0.52068   1.00
H2       0.78705    0.14835    0.55828   1.00
H2       0.67255    0.29297    0.51688   1.00
H2       0.63687    0.32965    0.51809   1.00
H2       0.62420    0.28165    0.53048   1.00
H2       0.66083    0.34641    0.45125   1.00
H2       0.69122    0.30565    0.44574   1.00
H2       0.65427    0.31551    0.41122   1.00
H2       0.61339    0.20058    0.35202   1.00
H2       0.63324    0.17963    0.39435   1.00
H2       0.58218    0.18604    0.39035   1.00
H2       0.58240    0.29646    0.39416   1.00
H2       0.58379    0.26721    0.35212   1.00
H2       0.55239    0.25444    0.39085   1.00
H2       0.59447    0.22073    0.53656   1.00
H2       0.55261    0.19337    0.52381   1.00
H2       0.59883    0.17811    0.50834   1.00
H2       0.51690    0.24487    0.49044   1.00
H2       0.55264    0.27842    0.50622   1.00
H2       0.53870    0.27638    0.45657   1.00
C4       0.75281    0.52084    0.25116   1.00
C4       0.75215    0.47912    0.25145   1.00
C3       0.77276    0.54364    0.27943   1.00
C3       0.76831    0.45616    0.28194   1.00
C3       0.73198    0.54123    0.22141   1.00
C3       0.73451    0.45886    0.21962   1.00
C2       0.75115    0.60512    0.24966   1.00
C2       0.74885    0.39488    0.25034   1.00
C3       0.77178    0.58462    0.27886   1.00
C3       0.76704    0.41519    0.28124   1.00
C3       0.73196    0.58258    0.22091   1.00
C3       0.73206    0.41762    0.22029   1.00
H1       0.78869    0.53115    0.30119   1.00
H1       0.78126    0.46852    0.30566   1.00
C5       0.71144    0.52020    0.19225   1.00
C5       0.71911    0.47980    0.18745   1.00
H1       0.78652    0.59955    0.30023   1.00
H1       0.77950    0.40010    0.30392   1.00
H1       0.71779    0.59680    0.19877   1.00
H1       0.71716    0.40368    0.19853   1.00
O3       0.68623    0.53961    0.16766   1.00
O3       0.70906    0.46099    0.15321   1.00
Si1      0.63994    0.54247    0.17862   1.00
Si1      0.74288    0.45279    0.12071   1.00
C6       0.62657    0.57538    0.14131   1.00
C6       0.61936    0.49598    0.17075   1.00
C6       0.63125    0.56253    0.22528   1.00
C6       0.79126    0.46693    0.13169   1.00
C6       0.74095    0.40198    0.11448   1.00
C6       0.72748    0.47477    0.07686   1.00
C6       0.65362    0.61194    0.13630   1.00
H2       0.63105    0.55791    0.11504   1.00
C6       0.58379    0.59147    0.13823   1.00
H2       0.63919    0.48358    0.14915   1.00
C6       0.61876    0.46634    0.20547   1.00
C6       0.57774    0.49336    0.15212   1.00
H2       0.65004    0.58831    0.22510   1.00
C6       0.58901    0.57772    0.23401   1.00
C6       0.64248    0.53849    0.26270   1.00
C6       0.79903    0.51071    0.14196   1.00
C6       0.81579    0.44225    0.16134   1.00
H2       0.80614    0.46212    0.10394   1.00
H2       0.75253    0.39051    0.14183   1.00
C6       0.69922    0.38378    0.11041   1.00
C6       0.76634    0.38393    0.08114   1.00
H2       0.70700    0.45375    0.06446   1.00
C6       0.70373    0.51336    0.08089   1.00
C6       0.75881    0.48244    0.04448   1.00
H2       0.68403    0.60346    0.13186   1.00
H2       0.65230    0.63090    0.16191   1.00
H2       0.64514    0.62917    0.11082   1.00
H2       0.57604    0.59608    0.10762   1.00
H2       0.56224    0.57178    0.15063   1.00
H2       0.58039    0.61964    0.15275   1.00
H2       0.61323    0.43672    0.19494   1.00
H2       0.64655    0.46532    0.22079   1.00
H2       0.59582    0.47352    0.22637   1.00
H2       0.57651    0.50862    0.12420   1.00
H2       0.56963    0.46308    0.14605   1.00
H2       0.55563    0.50550    0.17161   1.00
H2       0.56726    0.55514    0.22830   1.00
H2       0.58565    0.58708    0.26436   1.00
H2       0.58213    0.60332    0.21663   1.00
H2       0.61901    0.51902    0.27192   1.00
H2       0.66832    0.52068    0.25899   1.00
H2       0.64835    0.55828    0.28705   1.00
H2       0.79297    0.51688    0.17255   1.00
H2       0.82965    0.51809    0.13687   1.00
H2       0.78165    0.53048    0.12420   1.00
H2       0.84641    0.45125    0.16083   1.00
H2       0.80565    0.44574    0.19122   1.00
H2       0.81551    0.41122    0.15427   1.00
H2       0.70058    0.35202    0.11339   1.00
H2       0.67963    0.39435    0.13324   1.00
H2       0.68604    0.39035    0.08218   1.00
H2       0.79646    0.39416    0.08240   1.00
H2       0.76721    0.35212    0.08379   1.00
H2       0.75444    0.39085    0.05239   1.00
H2       0.72073    0.53656    0.09447   1.00
H2       0.69337    0.52381    0.05261   1.00
H2       0.67811    0.50834    0.09883   1.00
H2       0.74487    0.49044    0.01690   1.00
H2       0.77842    0.50622    0.05264   1.00
H2       0.77638    0.45657    0.03870   1.00
C4       0.47916    0.25116    0.24719   1.00
C4       0.52088    0.25145    0.24785   1.00
C3       0.45636    0.27943    0.22724   1.00
C3       0.54384    0.28194    0.23169   1.00
C3       0.45877    0.22141    0.26802   1.00
C3       0.54114    0.21962    0.26549   1.00
C2       0.39488    0.24966    0.24885   1.00
C2       0.60512    0.25034    0.25115   1.00
C3       0.41538    0.27886    0.22822   1.00
C3       0.58481    0.28124    0.23296   1.00
C3       0.41742    0.22091    0.26804   1.00
C3       0.58238    0.22029    0.26794   1.00
H1       0.46885    0.30119    0.21131   1.00
H1       0.53148    0.30566    0.21874   1.00
C5       0.47980    0.19225    0.28856   1.00
C5       0.52020    0.18745    0.28089   1.00
H1       0.40045    0.30023    0.21348   1.00
H1       0.59990    0.30392    0.22050   1.00
H1       0.40320    0.19877    0.28221   1.00
H1       0.59632    0.19853    0.28284   1.00
O3       0.46039    0.16766    0.31377   1.00
O3       0.53901    0.15321    0.29094   1.00
Si1      0.45753    0.17862    0.36006   1.00
Si1      0.54721    0.12071    0.25712   1.00
C6       0.42462    0.14131    0.37343   1.00
C6       0.50402    0.17075    0.38064   1.00
C6       0.43747    0.22528    0.36875   1.00
C6       0.53307    0.13169    0.20874   1.00
C6       0.59802    0.11448    0.25905   1.00
C6       0.52523    0.07686    0.27252   1.00
C6       0.38806    0.13630    0.34638   1.00
H2       0.44209    0.11504    0.36895   1.00
C6       0.40853    0.13823    0.41621   1.00
H2       0.51642    0.14915    0.36081   1.00
C6       0.53366    0.20547    0.38124   1.00
C6       0.50664    0.15212    0.42226   1.00
H2       0.41169    0.22510    0.34996   1.00
C6       0.42228    0.23401    0.41099   1.00
C6       0.46151    0.26270    0.35752   1.00
C6       0.48929    0.14196    0.20097   1.00
C6       0.55775    0.16134    0.18421   1.00
H2       0.53788    0.10394    0.19386   1.00
H2       0.60949    0.14183    0.24747   1.00
C6       0.61622    0.11041    0.30078   1.00
C6       0.61607    0.08114    0.23366   1.00
H2       0.54625    0.06446    0.29300   1.00
C6       0.48664    0.08089    0.29627   1.00
C6       0.51756    0.04448    0.24119   1.00
H2       0.39654    0.13186    0.31597   1.00
H2       0.36910    0.16191    0.34770   1.00
H2       0.37083    0.11082    0.35486   1.00
H2       0.40392    0.10762    0.42396   1.00
H2       0.42822    0.15063    0.43776   1.00
H2       0.38036    0.15275    0.41961   1.00
H2       0.56328    0.19494    0.38677   1.00
H2       0.53468    0.22079    0.35345   1.00
H2       0.52648    0.22637    0.40418   1.00
H2       0.49138    0.12420    0.42349   1.00
H2       0.53692    0.14605    0.43037   1.00
H2       0.49450    0.17161    0.44437   1.00
H2       0.44486    0.22830    0.43274   1.00
H2       0.41292    0.26436    0.41435   1.00
H2       0.39668    0.21663    0.41787   1.00
H2       0.48098    0.27192    0.38099   1.00
H2       0.47932    0.25899    0.33168   1.00
H2       0.44172    0.28705    0.35165   1.00
H2       0.48312    0.17255    0.20703   1.00
H2       0.48191    0.13687    0.17035   1.00
H2       0.46952    0.12420    0.21835   1.00
H2       0.54875    0.16083    0.15359   1.00
H2       0.55426    0.19122    0.19435   1.00
H2       0.58878    0.15427    0.18449   1.00
H2       0.64798    0.11339    0.29942   1.00
H2       0.60565    0.13324    0.32037   1.00
H2       0.60965    0.08218    0.31396   1.00
H2       0.60584    0.08240    0.20354   1.00
H2       0.64788    0.08379    0.23279   1.00
H2       0.60915    0.05239    0.24556   1.00
H2       0.46344    0.09447    0.27927   1.00
H2       0.47619    0.05261    0.30663   1.00
H2       0.49166    0.09883    0.32189   1.00
H2       0.50956    0.01690    0.25513   1.00
H2       0.49378    0.05264    0.22158   1.00
H2       0.54343    0.03870    0.22362   1.00
C4       1.02084    0.25116    0.25281   1.00
C4       0.97912    0.25145    0.25215   1.00
C3       1.04364    0.27943    0.27276   1.00
C3       0.95616    0.28194    0.26831   1.00
C3       1.04123    0.22141    0.23198   1.00
C3       0.95886    0.21962    0.23451   1.00
C2       1.10512    0.24966    0.25115   1.00
C2       0.89488    0.25034    0.24885   1.00
C3       1.08462    0.27886    0.27178   1.00
C3       0.91519    0.28124    0.26704   1.00
C3       1.08258    0.22091    0.23196   1.00
C3       0.91762    0.22029    0.23206   1.00
H1       1.03115    0.30119    0.28869   1.00
H1       0.96852    0.30566    0.28126   1.00
C5       1.02020    0.19225    0.21144   1.00
C5       0.97980    0.18745    0.21911   1.00
H1       1.09955    0.30023    0.28652   1.00
H1       0.90010    0.30392    0.27950   1.00
H1       1.09680    0.19877    0.21779   1.00
H1       0.90368    0.19853    0.21716   1.00
O3       1.03961    0.16766    0.18623   1.00
O3       0.96099    0.15321    0.20906   1.00
Si1      1.04247    0.17862    0.13994   1.00
Si1      0.95279    0.12071    0.24288   1.00
C6       1.07538    0.14131    0.12657   1.00
C6       0.99598    0.17075    0.11936   1.00
C6       1.06253    0.22528    0.13125   1.00
C6       0.96693    0.13169    0.29126   1.00
C6       0.90198    0.11448    0.24095   1.00
C6       0.97477    0.07686    0.22748   1.00
C6       1.11194    0.13630    0.15362   1.00
H2       1.05791    0.11504    0.13105   1.00
C6       1.09147    0.13823    0.08379   1.00
H2       0.98358    0.14915    0.13919   1.00
C6       0.96634    0.20547    0.11876   1.00
C6       0.99336    0.15212    0.07774   1.00
H2       1.08831    0.22510    0.15004   1.00
C6       1.07772    0.23401    0.08901   1.00
C6       1.03849    0.26270    0.14248   1.00
C6       1.01071    0.14196    0.29903   1.00
C6       0.94225    0.16134    0.31579   1.00
H2       0.96212    0.10394    0.30614   1.00
H2       0.89051    0.14183    0.25253   1.00
C6       0.88378    0.11041    0.19922   1.00
C6       0.88393    0.08114    0.26634   1.00
H2       0.95375    0.06446    0.20700   1.00
C6       1.01336    0.08089    0.20373   1.00
C6       0.98244    0.04448    0.25881   1.00
H2       1.10346    0.13186    0.18403   1.00
H2       1.13090    0.16191    0.15230   1.00
H2       1.12917    0.11082    0.14514   1.00
H2       1.09608    0.10762    0.07604   1.00
H2       1.07178    0.15063    0.06224   1.00
H2       1.11964    0.15275    0.08039   1.00
H2       0.93672    0.19494    0.11323   1.00
H2       0.96532    0.22079    0.14655   1.00
H2       0.97352    0.22637    0.09582   1.00
H2       1.00862    0.12420    0.07651   1.00
H2       0.96308    0.14605    0.06963   1.00
H2       1.00550    0.17161    0.05563   1.00
H2       1.05514    0.22830    0.06726   1.00
H2       1.08708    0.26436    0.08565   1.00
H2       1.10332    0.21663    0.08213   1.00
H2       1.01902    0.27192    0.11901   1.00
H2       1.02068    0.25899    0.16832   1.00
H2       1.05828    0.28705    0.14835   1.00
H2       1.01688    0.17255    0.29297   1.00
H2       1.01809    0.13687    0.32965   1.00
H2       1.03048    0.12420    0.28165   1.00
H2       0.95125    0.16083    0.34641   1.00
H2       0.94574    0.19122    0.30565   1.00
H2       0.91122    0.15427    0.31551   1.00
H2       0.85202    0.11339    0.20058   1.00
H2       0.89435    0.13324    0.17963   1.00
H2       0.89035    0.08218    0.18604   1.00
H2       0.89416    0.08240    0.29646   1.00
H2       0.85212    0.08379    0.26721   1.00
H2       0.89085    0.05239    0.25444   1.00
H2       1.03656    0.09447    0.22073   1.00
H2       1.02381    0.05261    0.19337   1.00
H2       1.00834    0.09883    0.17811   1.00
H2       0.99044    0.01690    0.24487   1.00
H2       1.00622    0.05264    0.27842   1.00
H2       0.95657    0.03870    0.27638   1.00
C4       0.74719    -0.02084   0.25116   1.00
C4       0.74785    0.02088    0.25145   1.00
C3       0.72724    -0.04364   0.27943   1.00
C3       0.73169    0.04384    0.28194   1.00
C3       0.76802    -0.04123   0.22141   1.00
C3       0.76549    0.04114    0.21962   1.00
C2       0.74885    -0.10512   0.24966   1.00
C2       0.75115    0.10512    0.25034   1.00
C3       0.72822    -0.08462   0.27886   1.00
C3       0.73296    0.08481    0.28124   1.00
C3       0.76804    -0.08258   0.22091   1.00
C3       0.76794    0.08238    0.22029   1.00
H1       0.71131    -0.03115   0.30119   1.00
H1       0.71874    0.03148    0.30566   1.00
C5       0.78856    -0.02020   0.19225   1.00
C5       0.78089    0.02020    0.18745   1.00
H1       0.71348    -0.09955   0.30023   1.00
H1       0.72050    0.09990    0.30392   1.00
H1       0.78221    -0.09680   0.19877   1.00
H1       0.78284    0.09632    0.19853   1.00
O3       0.81377    -0.03961   0.16766   1.00
O3       0.79094    0.03901    0.15321   1.00
Si1      0.86006    -0.04247   0.17862   1.00
Si1      0.75712    0.04721    0.12071   1.00
C6       0.87343    -0.07538   0.14131   1.00
C6       0.88064    0.00402    0.17075   1.00
C6       0.86875    -0.06253   0.22528   1.00
C6       0.70874    0.03307    0.13169   1.00
C6       0.75905    0.09802    0.11448   1.00
C6       0.77252    0.02523    0.07686   1.00
C6       0.84638    -0.11194   0.13630   1.00
H2       0.86895    -0.05791   0.11504   1.00
C6       0.91621    -0.09147   0.13823   1.00
H2       0.86081    0.01642    0.14915   1.00
C6       0.88124    0.03366    0.20547   1.00
C6       0.92226    0.00664    0.15212   1.00
H2       0.84996    -0.08831   0.22510   1.00
C6       0.91099    -0.07772   0.23401   1.00
C6       0.85752    -0.03849   0.26270   1.00
C6       0.70097    -0.01071   0.14196   1.00
C6       0.68421    0.05775    0.16134   1.00
H2       0.69386    0.03788    0.10394   1.00
H2       0.74747    0.10949    0.14183   1.00
C6       0.80078    0.11622    0.11041   1.00
C6       0.73366    0.11607    0.08114   1.00
H2       0.79300    0.04625    0.06446   1.00
C6       0.79627    -0.01336   0.08089   1.00
C6       0.74119    0.01756    0.04448   1.00
H2       0.81597    -0.10346   0.13186   1.00
H2       0.84770    -0.13090   0.16191   1.00
H2       0.85486    -0.12917   0.11082   1.00
H2       0.92396    -0.09608   0.10762   1.00
H2       0.93776    -0.07178   0.15063   1.00
H2       0.91961    -0.11964   0.15275   1.00
H2       0.88677    0.06328    0.19494   1.00
H2       0.85345    0.03468    0.22079   1.00
H2       0.90418    0.02648    0.22637   1.00
H2       0.92349    -0.00862   0.12420   1.00
H2       0.93037    0.03692    0.14605   1.00
H2       0.94437    -0.00550   0.17161   1.00
H2       0.93274    -0.05514   0.22830   1.00
H2       0.91435    -0.08708   0.26436   1.00
H2       0.91787    -0.10332   0.21663   1.00
H2       0.88099    -0.01902   0.27192   1.00
H2       0.83168    -0.02068   0.25899   1.00
H2       0.85165    -0.05828   0.28705   1.00
H2       0.70703    -0.01688   0.17255   1.00
H2       0.67035    -0.01809   0.13687   1.00
H2       0.71835    -0.03048   0.12420   1.00
H2       0.65359    0.04875    0.16083   1.00
H2       0.69435    0.05426    0.19122   1.00
H2       0.68449    0.08878    0.15427   1.00
H2       0.79942    0.14798    0.11339   1.00
H2       0.82037    0.10565    0.13324   1.00
H2       0.81396    0.10965    0.08218   1.00
H2       0.70354    0.10584    0.08240   1.00
H2       0.73279    0.14788    0.08379   1.00
H2       0.74556    0.10915    0.05239   1.00
H2       0.77927    -0.03656   0.09447   1.00
H2       0.80663    -0.02381   0.05261   1.00
H2       0.82189    -0.00834   0.09883   1.00
H2       0.75513    0.00956    0.01690   1.00
H2       0.72158    -0.00622   0.05264   1.00
H2       0.72362    0.04343    0.03870   1.00
C4       0.75116    0.24719    -0.02084   1.00
C4       0.75145    0.24785    0.02088   1.00
C3       0.77943    0.22724    -0.04364   1.00
C3       0.78194    0.23169    0.04384   1.00
C3       0.72141    0.26802    -0.04123   1.00
C3       0.71962    0.26549    0.04114   1.00
C2       0.74966    0.24885    -0.10512   1.00
C2       0.75034    0.25115    0.10512   1.00
C3       0.77886    0.22822    -0.08462   1.00
C3       0.78124    0.23296    0.08481   1.00
C3       0.72091    0.26804    -0.08258   1.00
C3       0.72029    0.26794    0.08238   1.00
H1       0.80119    0.21131    -0.03115   1.00
H1       0.80566    0.21874    0.03148   1.00
C5       0.69225    0.28856    -0.02020   1.00
C5       0.68745    0.28089    0.02020   1.00
H1       0.80023    0.21348    -0.09955   1.00
H1       0.80392    0.22050    0.09990   1.00
H1       0.69877    0.28221    -0.09680   1.00
H1       0.69853    0.28284    0.09632   1.00
O3       0.66766    0.31377    -0.03961   1.00
O3       0.65321    0.29094    0.03901   1.00
Si1      0.67862    0.36006    -0.04247   1.00
Si1      0.62071    0.25712    0.04721   1.00
C6       0.64131    0.37343    -0.07538   1.00
C6       0.67075    0.38064    0.00402   1.00
C6       0.72528    0.36875    -0.06253   1.00
C6       0.63169    0.20874    0.03307   1.00
C6       0.61448    0.25905    0.09802   1.00
C6       0.57686    0.27252    0.02523   1.00
C6       0.63630    0.34638    -0.11194   1.00
H2       0.61504    0.36895    -0.05791   1.00
C6       0.63823    0.41621    -0.09147   1.00
H2       0.64915    0.36081    0.01642   1.00
C6       0.70547    0.38124    0.03366   1.00
C6       0.65212    0.42226    0.00664   1.00
H2       0.72510    0.34996    -0.08831   1.00
C6       0.73401    0.41099    -0.07772   1.00
C6       0.76270    0.35752    -0.03849   1.00
C6       0.64196    0.20097    -0.01071   1.00
C6       0.66134    0.18421    0.05775   1.00
H2       0.60394    0.19386    0.03788   1.00
H2       0.64183    0.24747    0.10949   1.00
C6       0.61041    0.30078    0.11622   1.00
C6       0.58114    0.23366    0.11607   1.00
H2       0.56446    0.29300    0.04625   1.00
C6       0.58089    0.29627    -0.01336   1.00
C6       0.54448    0.24119    0.01756   1.00
H2       0.63186    0.31597    -0.10346   1.00
H2       0.66191    0.34770    -0.13090   1.00
H2       0.61082    0.35486    -0.12917   1.00
H2       0.60762    0.42396    -0.09608   1.00
H2       0.65063    0.43776    -0.07178   1.00
H2       0.65275    0.41961    -0.11964   1.00
H2       0.69494    0.38677    0.06328   1.00
H2       0.72079    0.35345    0.03468   1.00
H2       0.72637    0.40418    0.02648   1.00
H2       0.62420    0.42349    -0.00862   1.00
H2       0.64605    0.43037    0.03692   1.00
H2       0.67161    0.44437    -0.00550   1.00
H2       0.72830    0.43274    -0.05514   1.00
H2       0.76436    0.41435    -0.08708   1.00
H2       0.71663    0.41787    -0.10332   1.00
H2       0.77192    0.38099    -0.01902   1.00
H2       0.75899    0.33168    -0.02068   1.00
H2       0.78705    0.35165    -0.05828   1.00
H2       0.67255    0.20703    -0.01688   1.00
H2       0.63687    0.17035    -0.01809   1.00
H2       0.62420    0.21835    -0.03048   1.00
H2       0.66083    0.15359    0.04875   1.00
H2       0.69122    0.19435    0.05426   1.00
H2       0.65427    0.18449    0.08878   1.00
H2       0.61339    0.29942    0.14798   1.00
H2       0.63324    0.32037    0.10565   1.00
H2       0.58218    0.31396    0.10965   1.00
H2       0.58240    0.20354    0.10584   1.00
H2       0.58379    0.23279    0.14788   1.00
H2       0.55239    0.24556    0.10915   1.00
H2       0.59447    0.27927    -0.03656   1.00
H2       0.55261    0.30663    -0.02381   1.00
H2       0.59883    0.32189    -0.00834   1.00
H2       0.51690    0.25513    0.00956   1.00
H2       0.55264    0.22158    -0.00622   1.00
H2       0.53870    0.22362    0.04343   1.00
C4       1.00116    1.00281    1.27084   1.00
C4       1.00145    1.00215    1.22912   1.00
C3       1.02943    1.02276    1.29364   1.00
C3       1.03194    1.01831    1.20616   1.00
C3       0.97141    0.98198    1.29123   1.00
C3       0.96962    0.98451    1.20886   1.00
C2       0.99966    1.00115    1.35512   1.00
C2       1.00034    0.99885    1.14488   1.00
C3       1.02886    1.02178    1.33462   1.00
C3       1.03124    1.01704    1.16519   1.00
C3       0.97091    0.98196    1.33258   1.00
C3       0.97029    0.98206    1.16762   1.00
H1       1.05119    1.03869    1.28115   1.00
H1       1.05566    1.03126    1.21852   1.00
C5       0.94225    0.96144    1.27020   1.00
C5       0.93745    0.96911    1.22980   1.00
H1       1.05023    1.03652    1.34955   1.00
H1       1.05392    1.02950    1.15010   1.00
H1       0.94877    0.96779    1.34680   1.00
H1       0.94853    0.96716    1.15368   1.00
O3       0.91766    0.93623    1.28961   1.00
O3       0.90321    0.95906    1.21099   1.00
Si1      0.92862    0.88994    1.29247   1.00
Si1      0.87071    0.99288    1.20279   1.00
C6       0.89131    0.87657    1.32538   1.00
C6       0.92075    0.86936    1.24598   1.00
C6       0.97528    0.88125    1.31253   1.00
C6       0.88169    1.04126    1.21693   1.00
C6       0.86448    0.99095    1.15198   1.00
C6       0.82686    0.97748    1.22477   1.00
C6       0.88630    0.90362    1.36194   1.00
H2       0.86504    0.88105    1.30791   1.00
C6       0.88823    0.83379    1.34147   1.00
H2       0.89915    0.88919    1.23358   1.00
C6       0.95547    0.86876    1.21634   1.00
C6       0.90212    0.82774    1.24336   1.00
H2       0.97510    0.90004    1.33831   1.00
C6       0.98401    0.83901    1.32772   1.00
C6       1.01270    0.89248    1.28849   1.00
C6       0.89196    1.04903    1.26071   1.00
C6       0.91134    1.06579    1.19225   1.00
H2       0.85394    1.05614    1.21212   1.00
H2       0.89183    1.00253    1.14051   1.00
C6       0.86041    0.94922    1.13378   1.00
C6       0.83114    1.01634    1.13393   1.00
H2       0.81446    0.95700    1.20375   1.00
C6       0.83089    0.95373    1.26336   1.00
C6       0.79448    1.00881    1.23244   1.00
H2       0.88186    0.93403    1.35346   1.00
H2       0.91191    0.90230    1.38090   1.00
H2       0.86082    0.89514    1.37917   1.00
H2       0.85762    0.82604    1.34608   1.00
H2       0.90063    0.81224    1.32178   1.00
H2       0.90275    0.83039    1.36964   1.00
H2       0.94494    0.86323    1.18672   1.00
H2       0.97079    0.89655    1.21532   1.00
H2       0.97637    0.84582    1.22352   1.00
H2       0.87420    0.82651    1.25862   1.00
H2       0.89605    0.81963    1.21308   1.00
H2       0.92161    0.80563    1.25550   1.00
H2       0.97830    0.81726    1.30514   1.00
H2       1.01436    0.83565    1.33708   1.00
H2       0.96663    0.83213    1.35332   1.00
H2       1.02192    0.86901    1.26902   1.00
H2       1.00899    0.91832    1.27068   1.00
H2       1.03705    0.89835    1.30828   1.00
H2       0.92255    1.04297    1.26688   1.00
H2       0.88687    1.07965    1.26809   1.00
H2       0.87420    1.03165    1.28048   1.00
H2       0.91083    1.09641    1.20125   1.00
H2       0.94122    1.05565    1.19574   1.00
H2       0.90427    1.06551    1.16122   1.00
H2       0.86339    0.95058    1.10202   1.00
H2       0.88324    0.92963    1.14435   1.00
H2       0.83218    0.93604    1.14035   1.00
H2       0.83240    1.04646    1.14416   1.00
H2       0.83379    1.01721    1.10212   1.00
H2       0.80239    1.00444    1.14085   1.00
H2       0.84447    0.97073    1.28656   1.00
H2       0.80261    0.94337    1.27381   1.00
H2       0.84883    0.92811    1.25834   1.00
H2       0.76690    0.99487    1.24044   1.00
H2       0.80264    1.02842    1.25622   1.00
H2       0.78870    1.02638    1.20657   1.00
C4       1.00281    1.27084    1.00116   1.00
C4       1.00215    1.22912    1.00145   1.00
C3       1.02276    1.29364    1.02943   1.00
C3       1.01831    1.20616    1.03194   1.00
C3       0.98198    1.29123    0.97141   1.00
C3       0.98451    1.20886    0.96962   1.00
C2       1.00115    1.35512    0.99966   1.00
C2       0.99885    1.14488    1.00034   1.00
C3       1.02178    1.33462    1.02886   1.00
C3       1.01704    1.16519    1.03124   1.00
C3       0.98196    1.33258    0.97091   1.00
C3       0.98206    1.16762    0.97029   1.00
H1       1.03869    1.28115    1.05119   1.00
H1       1.03126    1.21852    1.05566   1.00
C5       0.96144    1.27020    0.94225   1.00
C5       0.96911    1.22980    0.93745   1.00
H1       1.03652    1.34955    1.05023   1.00
H1       1.02950    1.15010    1.05392   1.00
H1       0.96779    1.34680    0.94877   1.00
H1       0.96716    1.15368    0.94853   1.00
O3       0.93623    1.28961    0.91766   1.00
O3       0.95906    1.21099    0.90321   1.00
Si1      0.88994    1.29247    0.92862   1.00
Si1      0.99288    1.20279    0.87071   1.00
C6       0.87657    1.32538    0.89131   1.00
C6       0.86936    1.24598    0.92075   1.00
C6       0.88125    1.31253    0.97528   1.00
C6       1.04126    1.21693    0.88169   1.00
C6       0.99095    1.15198    0.86448   1.00
C6       0.97748    1.22477    0.82686   1.00
C6       0.90362    1.36194    0.88630   1.00
H2       0.88105    1.30791    0.86504   1.00
C6       0.83379    1.34147    0.88823   1.00
H2       0.88919    1.23358    0.89915   1.00
C6       0.86876    1.21634    0.95547   1.00
C6       0.82774    1.24336    0.90212   1.00
H2       0.90004    1.33831    0.97510   1.00
C6       0.83901    1.32772    0.98401   1.00
C6       0.89248    1.28849    1.01270   1.00
C6       1.04903    1.26071    0.89196   1.00
C6       1.06579    1.19225    0.91134   1.00
H2       1.05614    1.21212    0.85394   1.00
H2       1.00253    1.14051    0.89183   1.00
C6       0.94922    1.13378    0.86041   1.00
C6       1.01634    1.13393    0.83114   1.00
H2       0.95700    1.20375    0.81446   1.00
C6       0.95373    1.26336    0.83089   1.00
C6       1.00881    1.23244    0.79448   1.00
H2       0.93403    1.35346    0.88186   1.00
H2       0.90230    1.38090    0.91191   1.00
H2       0.89514    1.37917    0.86082   1.00
H2       0.82604    1.34608    0.85762   1.00
H2       0.81224    1.32178    0.90063   1.00
H2       0.83039    1.36964    0.90275   1.00
H2       0.86323    1.18672    0.94494   1.00
H2       0.89655    1.21532    0.97079   1.00
H2       0.84582    1.22352    0.97637   1.00
H2       0.82651    1.25862    0.87420   1.00
H2       0.81963    1.21308    0.89605   1.00
H2       0.80563    1.25550    0.92161   1.00
H2       0.81726    1.30514    0.97830   1.00
H2       0.83565    1.33708    1.01436   1.00
H2       0.83213    1.35332    0.96663   1.00
H2       0.86901    1.26902    1.02192   1.00
H2       0.91832    1.27068    1.00899   1.00
H2       0.89835    1.30828    1.03705   1.00
H2       1.04297    1.26688    0.92255   1.00
H2       1.07965    1.26809    0.88687   1.00
H2       1.03165    1.28048    0.87420   1.00
H2       1.09641    1.20125    0.91083   1.00
H2       1.05565    1.19574    0.94122   1.00
H2       1.06551    1.16122    0.90427   1.00
H2       0.95058    1.10202    0.86339   1.00
H2       0.92963    1.14435    0.88324   1.00
H2       0.93604    1.14035    0.83218   1.00
H2       1.04646    1.14416    0.83240   1.00
H2       1.01721    1.10212    0.83379   1.00
H2       1.00444    1.14085    0.80239   1.00
H2       0.97073    1.28656    0.84447   1.00
H2       0.94337    1.27381    0.80261   1.00
H2       0.92811    1.25834    0.84883   1.00
H2       0.99487    1.24044    0.76690   1.00
H2       1.02842    1.25622    0.80264   1.00
H2       1.02638    1.20657    0.78870   1.00
C4       0.72916    1.00116    0.99719   1.00
C4       0.77088    1.00145    0.99785   1.00
C3       0.70636    1.02943    0.97724   1.00
C3       0.79384    1.03194    0.98169   1.00
C3       0.70877    0.97141    1.01802   1.00
C3       0.79114    0.96962    1.01549   1.00
C2       0.64488    0.99966    0.99885   1.00
C2       0.85512    1.00034    1.00115   1.00
C3       0.66538    1.02886    0.97822   1.00
C3       0.83481    1.03124    0.98296   1.00
C3       0.66742    0.97091    1.01804   1.00
C3       0.83238    0.97029    1.01794   1.00
H1       0.71885    1.05119    0.96131   1.00
H1       0.78148    1.05566    0.96874   1.00
C5       0.72980    0.94225    1.03856   1.00
C5       0.77020    0.93745    1.03089   1.00
H1       0.65045    1.05023    0.96348   1.00
H1       0.84990    1.05392    0.97050   1.00
H1       0.65320    0.94877    1.03221   1.00
H1       0.84632    0.94853    1.03284   1.00
O3       0.71039    0.91766    1.06377   1.00
O3       0.78901    0.90321    1.04094   1.00
Si1      0.70753    0.92862    1.11006   1.00
Si1      0.79721    0.87071    1.00712   1.00
C6       0.67462    0.89131    1.12343   1.00
C6       0.75402    0.92075    1.13064   1.00
C6       0.68747    0.97528    1.11875   1.00
C6       0.78307    0.88169    0.95874   1.00
C6       0.84802    0.86448    1.00905   1.00
C6       0.77523    0.82686    1.02252   1.00
C6       0.63806    0.88630    1.09638   1.00
H2       0.69209    0.86504    1.11895   1.00
C6       0.65853    0.88823    1.16621   1.00
H2       0.76642    0.89915    1.11081   1.00
C6       0.78366    0.95547    1.13124   1.00
C6       0.75664    0.90212    1.17226   1.00
H2       0.66169    0.97510    1.09996   1.00
C6       0.67228    0.98401    1.16099   1.00
C6       0.71151    1.01270    1.10752   1.00
C6       0.73929    0.89196    0.95097   1.00
C6       0.80775    0.91134    0.93421   1.00
H2       0.78788    0.85394    0.94386   1.00
H2       0.85949    0.89183    0.99747   1.00
C6       0.86622    0.86041    1.05078   1.00
C6       0.86607    0.83114    0.98366   1.00
H2       0.79625    0.81446    1.04300   1.00
C6       0.73664    0.83089    1.04627   1.00
C6       0.76756    0.79448    0.99119   1.00
H2       0.64654    0.88186    1.06597   1.00
H2       0.61910    0.91191    1.09770   1.00
H2       0.62083    0.86082    1.10486   1.00
H2       0.65392    0.85762    1.17396   1.00
H2       0.67822    0.90063    1.18776   1.00
H2       0.63036    0.90275    1.16961   1.00
H2       0.81328    0.94494    1.13677   1.00
H2       0.78468    0.97079    1.10345   1.00
H2       0.77648    0.97637    1.15418   1.00
H2       0.74138    0.87420    1.17349   1.00
H2       0.78692    0.89605    1.18037   1.00
H2       0.74450    0.92161    1.19437   1.00
H2       0.69486    0.97830    1.18274   1.00
H2       0.66292    1.01436    1.16435   1.00
H2       0.64668    0.96663    1.16787   1.00
H2       0.73098    1.02192    1.13099   1.00
H2       0.72932    1.00899    1.08168   1.00
H2       0.69172    1.03705    1.10165   1.00
H2       0.73312    0.92255    0.95703   1.00
H2       0.73191    0.88687    0.92035   1.00
H2       0.71952    0.87420    0.96835   1.00
H2       0.79875    0.91083    0.90359   1.00
H2       0.80426    0.94122    0.94435   1.00
H2       0.83878    0.90427    0.93449   1.00
H2       0.89798    0.86339    1.04942   1.00
H2       0.85565    0.88324    1.07037   1.00
H2       0.85965    0.83218    1.06396   1.00
H2       0.85584    0.83240    0.95354   1.00
H2       0.89788    0.83379    0.98279   1.00
H2       0.85915    0.80239    0.99556   1.00
H2       0.71344    0.84447    1.02927   1.00
H2       0.72619    0.80261    1.05663   1.00
H2       0.74166    0.84883    1.07189   1.00
H2       0.75956    0.76690    1.00513   1.00
H2       0.74378    0.80264    0.97158   1.00
H2       0.79343    0.78870    0.97362   1.00
C4       1.27084    1.00116    1.00281   1.00
C4       1.22912    1.00145    1.00215   1.00
C3       1.29364    1.02943    1.02276   1.00
C3       1.20616    1.03194    1.01831   1.00
C3       1.29123    0.97141    0.98198   1.00
C3       1.20886    0.96962    0.98451   1.00
C2       1.35512    0.99966    1.00115   1.00
C2       1.14488    1.00034    0.99885   1.00
C3       1.33462    1.02886    1.02178   1.00
C3       1.16519    1.03124    1.01704   1.00
C3       1.33258    0.97091    0.98196   1.00
C3       1.16762    0.97029    0.98206   1.00
H1       1.28115    1.05119    1.03869   1.00
H1       1.21852    1.05566    1.03126   1.00
C5       1.27020    0.94225    0.96144   1.00
C5       1.22980    0.93745    0.96911   1.00
H1       1.34955    1.05023    1.03652   1.00
H1       1.15010    1.05392    1.02950   1.00
H1       1.34680    0.94877    0.96779   1.00
H1       1.15368    0.94853    0.96716   1.00
O3       1.28961    0.91766    0.93623   1.00
O3       1.21099    0.90321    0.95906   1.00
Si1      1.29247    0.92862    0.88994   1.00
Si1      1.20279    0.87071    0.99288   1.00
C6       1.32538    0.89131    0.87657   1.00
C6       1.24598    0.92075    0.86936   1.00
C6       1.31253    0.97528    0.88125   1.00
C6       1.21693    0.88169    1.04126   1.00
C6       1.15198    0.86448    0.99095   1.00
C6       1.22477    0.82686    0.97748   1.00
C6       1.36194    0.88630    0.90362   1.00
H2       1.30791    0.86504    0.88105   1.00
C6       1.34147    0.88823    0.83379   1.00
H2       1.23358    0.89915    0.88919   1.00
C6       1.21634    0.95547    0.86876   1.00
C6       1.24336    0.90212    0.82774   1.00
H2       1.33831    0.97510    0.90004   1.00
C6       1.32772    0.98401    0.83901   1.00
C6       1.28849    1.01270    0.89248   1.00
C6       1.26071    0.89196    1.04903   1.00
C6       1.19225    0.91134    1.06579   1.00
H2       1.21212    0.85394    1.05614   1.00
H2       1.14051    0.89183    1.00253   1.00
C6       1.13378    0.86041    0.94922   1.00
C6       1.13393    0.83114    1.01634   1.00
H2       1.20375    0.81446    0.95700   1.00
C6       1.26336    0.83089    0.95373   1.00
C6       1.23244    0.79448    1.00881   1.00
H2       1.35346    0.88186    0.93403   1.00
H2       1.38090    0.91191    0.90230   1.00
H2       1.37917    0.86082    0.89514   1.00
H2       1.34608    0.85762    0.82604   1.00
H2       1.32178    0.90063    0.81224   1.00
H2       1.36964    0.90275    0.83039   1.00
H2       1.18672    0.94494    0.86323   1.00
H2       1.21532    0.97079    0.89655   1.00
H2       1.22352    0.97637    0.84582   1.00
H2       1.25862    0.87420    0.82651   1.00
H2       1.21308    0.89605    0.81963   1.00
H2       1.25550    0.92161    0.80563   1.00
H2       1.30514    0.97830    0.81726   1.00
H2       1.33708    1.01436    0.83565   1.00
H2       1.35332    0.96663    0.83213   1.00
H2       1.26902    1.02192    0.86901   1.00
H2       1.27068    1.00899    0.91832   1.00
H2       1.30828    1.03705    0.89835   1.00
H2       1.26688    0.92255    1.04297   1.00
H2       1.26809    0.88687    1.07965   1.00
H2       1.28048    0.87420    1.03165   1.00
H2       1.20125    0.91083    1.09641   1.00
H2       1.19574    0.94122    1.05565   1.00
H2       1.16122    0.90427    1.06551   1.00
H2       1.10202    0.86339    0.95058   1.00
H2       1.14435    0.88324    0.92963   1.00
H2       1.14035    0.83218    0.93604   1.00
H2       1.14416    0.83240    1.04646   1.00
H2       1.10212    0.83379    1.01721   1.00
H2       1.14085    0.80239    1.00444   1.00
H2       1.28656    0.84447    0.97073   1.00
H2       1.27381    0.80261    0.94337   1.00
H2       1.25834    0.84883    0.92811   1.00
H2       1.24044    0.76690    0.99487   1.00
H2       1.25622    0.80264    1.02842   1.00
H2       1.20657    0.78870    1.02638   1.00
C4       0.99719    0.72916    1.00116   1.00
C4       0.99785    0.77088    1.00145   1.00
C3       0.97724    0.70636    1.02943   1.00
C3       0.98169    0.79384    1.03194   1.00
C3       1.01802    0.70877    0.97141   1.00
C3       1.01549    0.79114    0.96962   1.00
C2       0.99885    0.64488    0.99966   1.00
C2       1.00115    0.85512    1.00034   1.00
C3       0.97822    0.66538    1.02886   1.00
C3       0.98296    0.83481    1.03124   1.00
C3       1.01804    0.66742    0.97091   1.00
C3       1.01794    0.83238    0.97029   1.00
H1       0.96131    0.71885    1.05119   1.00
H1       0.96874    0.78148    1.05566   1.00
C5       1.03856    0.72980    0.94225   1.00
C5       1.03089    0.77020    0.93745   1.00
H1       0.96348    0.65045    1.05023   1.00
H1       0.97050    0.84990    1.05392   1.00
H1       1.03221    0.65320    0.94877   1.00
H1       1.03284    0.84632    0.94853   1.00
O3       1.06377    0.71039    0.91766   1.00
O3       1.04094    0.78901    0.90321   1.00
Si1      1.11006    0.70753    0.92862   1.00
Si1      1.00712    0.79721    0.87071   1.00
C6       1.12343    0.67462    0.89131   1.00
C6       1.13064    0.75402    0.92075   1.00
C6       1.11875    0.68747    0.97528   1.00
C6       0.95874    0.78307    0.88169   1.00
C6       1.00905    0.84802    0.86448   1.00
C6       1.02252    0.77523    0.82686   1.00
C6       1.09638    0.63806    0.88630   1.00
H2       1.11895    0.69209    0.86504   1.00
C6       1.16621    0.65853    0.88823   1.00
H2       1.11081    0.76642    0.89915   1.00
C6       1.13124    0.78366    0.95547   1.00
C6       1.17226    0.75664    0.90212   1.00
H2       1.09996    0.66169    0.97510   1.00
C6       1.16099    0.67228    0.98401   1.00
C6       1.10752    0.71151    1.01270   1.00
C6       0.95097    0.73929    0.89196   1.00
C6       0.93421    0.80775    0.91134   1.00
H2       0.94386    0.78788    0.85394   1.00
H2       0.99747    0.85949    0.89183   1.00
C6       1.05078    0.86622    0.86041   1.00
C6       0.98366    0.86607    0.83114   1.00
H2       1.04300    0.79625    0.81446   1.00
C6       1.04627    0.73664    0.83089   1.00
C6       0.99119    0.76756    0.79448   1.00
H2       1.06597    0.64654    0.88186   1.00
H2       1.09770    0.61910    0.91191   1.00
H2       1.10486    0.62083    0.86082   1.00
H2       1.17396    0.65392    0.85762   1.00
H2       1.18776    0.67822    0.90063   1.00
H2       1.16961    0.63036    0.90275   1.00
H2       1.13677    0.81328    0.94494   1.00
H2       1.10345    0.78468    0.97079   1.00
H2       1.15418    0.77648    0.97637   1.00
H2       1.17349    0.74138    0.87420   1.00
H2       1.18037    0.78692    0.89605   1.00
H2       1.19437    0.74450    0.92161   1.00
H2       1.18274    0.69486    0.97830   1.00
H2       1.16435    0.66292    1.01436   1.00
H2       1.16787    0.64668    0.96663   1.00
H2       1.13099    0.73098    1.02192   1.00
H2       1.08168    0.72932    1.00899   1.00
H2       1.10165    0.69172    1.03705   1.00
H2       0.95703    0.73312    0.92255   1.00
H2       0.92035    0.73191    0.88687   1.00
H2       0.96835    0.71952    0.87420   1.00
H2       0.90359    0.79875    0.91083   1.00
H2       0.94435    0.80426    0.94122   1.00
H2       0.93449    0.83878    0.90427   1.00
H2       1.04942    0.89798    0.86339   1.00
H2       1.07037    0.85565    0.88324   1.00
H2       1.06396    0.85965    0.83218   1.00
H2       0.95354    0.85584    0.83240   1.00
H2       0.98279    0.89788    0.83379   1.00
H2       0.99556    0.85915    0.80239   1.00
H2       1.02927    0.71344    0.84447   1.00
H2       1.05663    0.72619    0.80261   1.00
H2       1.07189    0.74166    0.84883   1.00
H2       1.00513    0.75956    0.76690   1.00
H2       0.97158    0.74378    0.80264   1.00
H2       0.97362    0.79343    0.78870   1.00
C4       1.00116    0.99719    0.72916   1.00
C4       1.00145    0.99785    0.77088   1.00
C3       1.02943    0.97724    0.70636   1.00
C3       1.03194    0.98169    0.79384   1.00
C3       0.97141    1.01802    0.70877   1.00
C3       0.96962    1.01549    0.79114   1.00
C2       0.99966    0.99885    0.64488   1.00
C2       1.00034    1.00115    0.85512   1.00
C3       1.02886    0.97822    0.66538   1.00
C3       1.03124    0.98296    0.83481   1.00
C3       0.97091    1.01804    0.66742   1.00
C3       0.97029    1.01794    0.83238   1.00
H1       1.05119    0.96131    0.71885   1.00
H1       1.05566    0.96874    0.78148   1.00
C5       0.94225    1.03856    0.72980   1.00
C5       0.93745    1.03089    0.77020   1.00
H1       1.05023    0.96348    0.65045   1.00
H1       1.05392    0.97050    0.84990   1.00
H1       0.94877    1.03221    0.65320   1.00
H1       0.94853    1.03284    0.84632   1.00
O3       0.91766    1.06377    0.71039   1.00
O3       0.90321    1.04094    0.78901   1.00
Si1      0.92862    1.11006    0.70753   1.00
Si1      0.87071    1.00712    0.79721   1.00
C6       0.89131    1.12343    0.67462   1.00
C6       0.92075    1.13064    0.75402   1.00
C6       0.97528    1.11875    0.68747   1.00
C6       0.88169    0.95874    0.78307   1.00
C6       0.86448    1.00905    0.84802   1.00
C6       0.82686    1.02252    0.77523   1.00
C6       0.88630    1.09638    0.63806   1.00
H2       0.86504    1.11895    0.69209   1.00
C6       0.88823    1.16621    0.65853   1.00
H2       0.89915    1.11081    0.76642   1.00
C6       0.95547    1.13124    0.78366   1.00
C6       0.90212    1.17226    0.75664   1.00
H2       0.97510    1.09996    0.66169   1.00
C6       0.98401    1.16099    0.67228   1.00
C6       1.01270    1.10752    0.71151   1.00
C6       0.89196    0.95097    0.73929   1.00
C6       0.91134    0.93421    0.80775   1.00
H2       0.85394    0.94386    0.78788   1.00
H2       0.89183    0.99747    0.85949   1.00
C6       0.86041    1.05078    0.86622   1.00
C6       0.83114    0.98366    0.86607   1.00
H2       0.81446    1.04300    0.79625   1.00
C6       0.83089    1.04627    0.73664   1.00
C6       0.79448    0.99119    0.76756   1.00
H2       0.88186    1.06597    0.64654   1.00
H2       0.91191    1.09770    0.61910   1.00
H2       0.86082    1.10486    0.62083   1.00
H2       0.85762    1.17396    0.65392   1.00
H2       0.90063    1.18776    0.67822   1.00
H2       0.90275    1.16961    0.63036   1.00
H2       0.94494    1.13677    0.81328   1.00
H2       0.97079    1.10345    0.78468   1.00
H2       0.97637    1.15418    0.77648   1.00
H2       0.87420    1.17349    0.74138   1.00
H2       0.89605    1.18037    0.78692   1.00
H2       0.92161    1.19437    0.74450   1.00
H2       0.97830    1.18274    0.69486   1.00
H2       1.01436    1.16435    0.66292   1.00
H2       0.96663    1.16787    0.64668   1.00
H2       1.02192    1.13099    0.73098   1.00
H2       1.00899    1.08168    0.72932   1.00
H2       1.03705    1.10165    0.69172   1.00
H2       0.92255    0.95703    0.73312   1.00
H2       0.88687    0.92035    0.73191   1.00
H2       0.87420    0.96835    0.71952   1.00
H2       0.91083    0.90359    0.79875   1.00
H2       0.94122    0.94435    0.80426   1.00
H2       0.90427    0.93449    0.83878   1.00
H2       0.86339    1.04942    0.89798   1.00
H2       0.88324    1.07037    0.85565   1.00
H2       0.83218    1.06396    0.85965   1.00
H2       0.83240    0.95354    0.85584   1.00
H2       0.83379    0.98279    0.89788   1.00
H2       0.80239    0.99556    0.85915   1.00
H2       0.84447    1.02927    0.71344   1.00
H2       0.80261    1.05663    0.72619   1.00
H2       0.84883    1.07189    0.74166   1.00
H2       0.76690    1.00513    0.75956   1.00
H2       0.80264    0.97158    0.74378   1.00
H2       0.78870    0.97362    0.79343   1.00
C4       0.50116    0.50281    1.27084   1.00
C4       0.50145    0.50215    1.22912   1.00
C3       0.52943    0.52276    1.29364   1.00
C3       0.53194    0.51831    1.20616   1.00
C3       0.47141    0.48198    1.29123   1.00
C3       0.46962    0.48451    1.20886   1.00
C2       0.49966    0.50115    1.35512   1.00
C2       0.50034    0.49885    1.14488   1.00
C3       0.52886    0.52178    1.33462   1.00
C3       0.53124    0.51704    1.16519   1.00
C3       0.47091    0.48196    1.33258   1.00
C3       0.47029    0.48206    1.16762   1.00
H1       0.55119    0.53869    1.28115   1.00
H1       0.55566    0.53126    1.21852   1.00
C5       0.44225    0.46144    1.27020   1.00
C5       0.43745    0.46911    1.22980   1.00
H1       0.55023    0.53652    1.34955   1.00
H1       0.55392    0.52950    1.15010   1.00
H1       0.44877    0.46779    1.34680   1.00
H1       0.44853    0.46716    1.15368   1.00
O3       0.41766    0.43623    1.28961   1.00
O3       0.40321    0.45906    1.21099   1.00
Si1      0.42862    0.38994    1.29247   1.00
Si1      0.37071    0.49288    1.20279   1.00
C6       0.39131    0.37657    1.32538   1.00
C6       0.42075    0.36936    1.24598   1.00
C6       0.47528    0.38125    1.31253   1.00
C6       0.38169    0.54126    1.21693   1.00
C6       0.36448    0.49095    1.15198   1.00
C6       0.32686    0.47748    1.22477   1.00
C6       0.38630    0.40362    1.36194   1.00
H2       0.36504    0.38105    1.30791   1.00
C6       0.38823    0.33379    1.34147   1.00
H2       0.39915    0.38919    1.23358   1.00
C6       0.45547    0.36876    1.21634   1.00
C6       0.40212    0.32774    1.24336   1.00
H2       0.47510    0.40004    1.33831   1.00
C6       0.48401    0.33901    1.32772   1.00
C6       0.51270    0.39248    1.28849   1.00
C6       0.39196    0.54903    1.26071   1.00
C6       0.41134    0.56579    1.19225   1.00
H2       0.35394    0.55614    1.21212   1.00
H2       0.39183    0.50253    1.14051   1.00
C6       0.36041    0.44922    1.13378   1.00
C6       0.33114    0.51634    1.13393   1.00
H2       0.31446    0.45700    1.20375   1.00
C6       0.33089    0.45373    1.26336   1.00
C6       0.29448    0.50881    1.23244   1.00
H2       0.38186    0.43403    1.35346   1.00
H2       0.41191    0.40230    1.38090   1.00
H2       0.36082    0.39514    1.37917   1.00
H2       0.35762    0.32604    1.34608   1.00
H2       0.40063    0.31224    1.32178   1.00
H2       0.40275    0.33039    1.36964   1.00
H2       0.44494    0.36323    1.18672   1.00
H2       0.47079    0.39655    1.21532   1.00
H2       0.47637    0.34582    1.22352   1.00
H2       0.37420    0.32651    1.25862   1.00
H2       0.39605    0.31963    1.21308   1.00
H2       0.42161    0.30563    1.25550   1.00
H2       0.47830    0.31726    1.30514   1.00
H2       0.51436    0.33565    1.33708   1.00
H2       0.46663    0.33213    1.35332   1.00
H2       0.52192    0.36901    1.26902   1.00
H2       0.50899    0.41832    1.27068   1.00
H2       0.53705    0.39835    1.30828   1.00
H2       0.42255    0.54297    1.26688   1.00
H2       0.38687    0.57965    1.26809   1.00
H2       0.37420    0.53165    1.28048   1.00
H2       0.41083    0.59641    1.20125   1.00
H2       0.44122    0.55565    1.19574   1.00
H2       0.40427    0.56551    1.16122   1.00
H2       0.36339    0.45058    1.10202   1.00
H2       0.38324    0.42963    1.14435   1.00
H2       0.33218    0.43604    1.14035   1.00
H2       0.33240    0.54646    1.14416   1.00
H2       0.33379    0.51721    1.10212   1.00
H2       0.30239    0.50444    1.14085   1.00
H2       0.34447    0.47073    1.28656   1.00
H2       0.30261    0.44337    1.27381   1.00
H2       0.34883    0.42811    1.25834   1.00
H2       0.26690    0.49487    1.24044   1.00
H2       0.30264    0.52842    1.25622   1.00
H2       0.28870    0.52638    1.20657   1.00
C4       0.50281    0.77084    1.00116   1.00
C4       0.50215    0.72912    1.00145   1.00
C3       0.52276    0.79364    1.02943   1.00
C3       0.51831    0.70616    1.03194   1.00
C3       0.48198    0.79123    0.97141   1.00
C3       0.48451    0.70886    0.96962   1.00
C2       0.50115    0.85512    0.99966   1.00
C2       0.49885    0.64488    1.00034   1.00
C3       0.52178    0.83462    1.02886   1.00
C3       0.51704    0.66519    1.03124   1.00
C3       0.48196    0.83258    0.97091   1.00
C3       0.48206    0.66762    0.97029   1.00
H1       0.53869    0.78115    1.05119   1.00
H1       0.53126    0.71852    1.05566   1.00
C5       0.46144    0.77020    0.94225   1.00
C5       0.46911    0.72980    0.93745   1.00
H1       0.53652    0.84955    1.05023   1.00
H1       0.52950    0.65010    1.05392   1.00
H1       0.46779    0.84680    0.94877   1.00
H1       0.46716    0.65368    0.94853   1.00
O3       0.43623    0.78961    0.91766   1.00
O3       0.45906    0.71099    0.90321   1.00
Si1      0.38994    0.79247    0.92862   1.00
Si1      0.49288    0.70279    0.87071   1.00
C6       0.37657    0.82538    0.89131   1.00
C6       0.36936    0.74598    0.92075   1.00
C6       0.38125    0.81253    0.97528   1.00
C6       0.54126    0.71693    0.88169   1.00
C6       0.49095    0.65198    0.86448   1.00
C6       0.47748    0.72477    0.82686   1.00
C6       0.40362    0.86194    0.88630   1.00
H2       0.38105    0.80791    0.86504   1.00
C6       0.33379    0.84147    0.88823   1.00
H2       0.38919    0.73358    0.89915   1.00
C6       0.36876    0.71634    0.95547   1.00
C6       0.32774    0.74336    0.90212   1.00
H2       0.40004    0.83831    0.97510   1.00
C6       0.33901    0.82772    0.98401   1.00
C6       0.39248    0.78849    1.01270   1.00
C6       0.54903    0.76071    0.89196   1.00
C6       0.56579    0.69225    0.91134   1.00
H2       0.55614    0.71212    0.85394   1.00
H2       0.50253    0.64051    0.89183   1.00
C6       0.44922    0.63378    0.86041   1.00
C6       0.51634    0.63393    0.83114   1.00
H2       0.45700    0.70375    0.81446   1.00
C6       0.45373    0.76336    0.83089   1.00
C6       0.50881    0.73244    0.79448   1.00
H2       0.43403    0.85346    0.88186   1.00
H2       0.40230    0.88090    0.91191   1.00
H2       0.39514    0.87917    0.86082   1.00
H2       0.32604    0.84608    0.85762   1.00
H2       0.31224    0.82178    0.90063   1.00
H2       0.33039    0.86964    0.90275   1.00
H2       0.36323    0.68672    0.94494   1.00
H2       0.39655    0.71532    0.97079   1.00
H2       0.34582    0.72352    0.97637   1.00
H2       0.32651    0.75862    0.87420   1.00
H2       0.31963    0.71308    0.89605   1.00
H2       0.30563    0.75550    0.92161   1.00
H2       0.31726    0.80514    0.97830   1.00
H2       0.33565    0.83708    1.01436   1.00
H2       0.33213    0.85332    0.96663   1.00
H2       0.36901    0.76902    1.02192   1.00
H2       0.41832    0.77068    1.00899   1.00
H2       0.39835    0.80828    1.03705   1.00
H2       0.54297    0.76688    0.92255   1.00
H2       0.57965    0.76809    0.88687   1.00
H2       0.53165    0.78048    0.87420   1.00
H2       0.59641    0.70125    0.91083   1.00
H2       0.55565    0.69574    0.94122   1.00
H2       0.56551    0.66122    0.90427   1.00
H2       0.45058    0.60202    0.86339   1.00
H2       0.42963    0.64435    0.88324   1.00
H2       0.43604    0.64035    0.83218   1.00
H2       0.54646    0.64416    0.83240   1.00
H2       0.51721    0.60212    0.83379   1.00
H2       0.50444    0.64085    0.80239   1.00
H2       0.47073    0.78656    0.84447   1.00
H2       0.44337    0.77381    0.80261   1.00
H2       0.42811    0.75834    0.84883   1.00
H2       0.49487    0.74044    0.76690   1.00
H2       0.52842    0.75622    0.80264   1.00
H2       0.52638    0.70657    0.78870   1.00
C4       0.22916    0.50116    0.99719   1.00
C4       0.27088    0.50145    0.99785   1.00
C3       0.20636    0.52943    0.97724   1.00
C3       0.29384    0.53194    0.98169   1.00
C3       0.20877    0.47141    1.01802   1.00
C3       0.29114    0.46962    1.01549   1.00
C2       0.14488    0.49966    0.99885   1.00
C2       0.35512    0.50034    1.00115   1.00
C3       0.16538    0.52886    0.97822   1.00
C3       0.33481    0.53124    0.98296   1.00
C3       0.16742    0.47091    1.01804   1.00
C3       0.33238    0.47029    1.01794   1.00
H1       0.21885    0.55119    0.96131   1.00
H1       0.28148    0.55566    0.96874   1.00
C5       0.22980    0.44225    1.03856   1.00
C5       0.27020    0.43745    1.03089   1.00
H1       0.15045    0.55023    0.96348   1.00
H1       0.34990    0.55392    0.97050   1.00
H1       0.15320    0.44877    1.03221   1.00
H1       0.34632    0.44853    1.03284   1.00
O3       0.21039    0.41766    1.06377   1.00
O3       0.28901    0.40321    1.04094   1.00
Si1      0.20753    0.42862    1.11006   1.00
Si1      0.29721    0.37071    1.00712   1.00
C6       0.17462    0.39131    1.12343   1.00
C6       0.25402    0.42075    1.13064   1.00
C6       0.18747    0.47528    1.11875   1.00
C6       0.28307    0.38169    0.95874   1.00
C6       0.34802    0.36448    1.00905   1.00
C6       0.27523    0.32686    1.02252   1.00
C6       0.13806    0.38630    1.09638   1.00
H2       0.19209    0.36504    1.11895   1.00
C6       0.15853    0.38823    1.16621   1.00
H2       0.26642    0.39915    1.11081   1.00
C6       0.28366    0.45547    1.13124   1.00
C6       0.25664    0.40212    1.17226   1.00
H2       0.16169    0.47510    1.09996   1.00
C6       0.17228    0.48401    1.16099   1.00
C6       0.21151    0.51270    1.10752   1.00
C6       0.23929    0.39196    0.95097   1.00
C6       0.30775    0.41134    0.93421   1.00
H2       0.28788    0.35394    0.94386   1.00
H2       0.35949    0.39183    0.99747   1.00
C6       0.36622    0.36041    1.05078   1.00
C6       0.36607    0.33114    0.98366   1.00
H2       0.29625    0.31446    1.04300   1.00
C6       0.23664    0.33089    1.04627   1.00
C6       0.26756    0.29448    0.99119   1.00
H2       0.14654    0.38186    1.06597   1.00
H2       0.11910    0.41191    1.09770   1.00
H2       0.12083    0.36082    1.10486   1.00
H2       0.15392    0.35762    1.17396   1.00
H2       0.17822    0.40063    1.18776   1.00
H2       0.13036    0.40275    1.16961   1.00
H2       0.31328    0.44494    1.13677   1.00
H2       0.28468    0.47079    1.10345   1.00
H2       0.27648    0.47637    1.15418   1.00
H2       0.24138    0.37420    1.17349   1.00
H2       0.28692    0.39605    1.18037   1.00
H2       0.24450    0.42161    1.19437   1.00
H2       0.19486    0.47830    1.18274   1.00
H2       0.16292    0.51436    1.16435   1.00
H2       0.14668    0.46663    1.16787   1.00
H2       0.23098    0.52192    1.13099   1.00
H2       0.22932    0.50899    1.08168   1.00
H2       0.19172    0.53705    1.10165   1.00
H2       0.23312    0.42255    0.95703   1.00
H2       0.23191    0.38687    0.92035   1.00
H2       0.21952    0.37420    0.96835   1.00
H2       0.29875    0.41083    0.90359   1.00
H2       0.30426    0.44122    0.94435   1.00
H2       0.33878    0.40427    0.93449   1.00
H2       0.39798    0.36339    1.04942   1.00
H2       0.35565    0.38324    1.07037   1.00
H2       0.35965    0.33218    1.06396   1.00
H2       0.35584    0.33240    0.95354   1.00
H2       0.39788    0.33379    0.98279   1.00
H2       0.35915    0.30239    0.99556   1.00
H2       0.21344    0.34447    1.02927   1.00
H2       0.22619    0.30261    1.05663   1.00
H2       0.24166    0.34883    1.07189   1.00
H2       0.25956    0.26690    1.00513   1.00
H2       0.24378    0.30264    0.97158   1.00
H2       0.29343    0.28870    0.97362   1.00
C4       0.77084    0.50116    1.00281   1.00
C4       0.72912    0.50145    1.00215   1.00
C3       0.79364    0.52943    1.02276   1.00
C3       0.70616    0.53194    1.01831   1.00
C3       0.79123    0.47141    0.98198   1.00
C3       0.70886    0.46962    0.98451   1.00
C2       0.85512    0.49966    1.00115   1.00
C2       0.64488    0.50034    0.99885   1.00
C3       0.83462    0.52886    1.02178   1.00
C3       0.66519    0.53124    1.01704   1.00
C3       0.83258    0.47091    0.98196   1.00
C3       0.66762    0.47029    0.98206   1.00
H1       0.78115    0.55119    1.03869   1.00
H1       0.71852    0.55566    1.03126   1.00
C5       0.77020    0.44225    0.96144   1.00
C5       0.72980    0.43745    0.96911   1.00
H1       0.84955    0.55023    1.03652   1.00
H1       0.65010    0.55392    1.02950   1.00
H1       0.84680    0.44877    0.96779   1.00
H1       0.65368    0.44853    0.96716   1.00
O3       0.78961    0.41766    0.93623   1.00
O3       0.71099    0.40321    0.95906   1.00
Si1      0.79247    0.42862    0.88994   1.00
Si1      0.70279    0.37071    0.99288   1.00
C6       0.82538    0.39131    0.87657   1.00
C6       0.74598    0.42075    0.86936   1.00
C6       0.81253    0.47528    0.88125   1.00
C6       0.71693    0.38169    1.04126   1.00
C6       0.65198    0.36448    0.99095   1.00
C6       0.72477    0.32686    0.97748   1.00
C6       0.86194    0.38630    0.90362   1.00
H2       0.80791    0.36504    0.88105   1.00
C6       0.84147    0.38823    0.83379   1.00
H2       0.73358    0.39915    0.88919   1.00
C6       0.71634    0.45547    0.86876   1.00
C6       0.74336    0.40212    0.82774   1.00
H2       0.83831    0.47510    0.90004   1.00
C6       0.82772    0.48401    0.83901   1.00
C6       0.78849    0.51270    0.89248   1.00
C6       0.76071    0.39196    1.04903   1.00
C6       0.69225    0.41134    1.06579   1.00
H2       0.71212    0.35394    1.05614   1.00
H2       0.64051    0.39183    1.00253   1.00
C6       0.63378    0.36041    0.94922   1.00
C6       0.63393    0.33114    1.01634   1.00
H2       0.70375    0.31446    0.95700   1.00
C6       0.76336    0.33089    0.95373   1.00
C6       0.73244    0.29448    1.00881   1.00
H2       0.85346    0.38186    0.93403   1.00
H2       0.88090    0.41191    0.90230   1.00
H2       0.87917    0.36082    0.89514   1.00
H2       0.84608    0.35762    0.82604   1.00
H2       0.82178    0.40063    0.81224   1.00
H2       0.86964    0.40275    0.83039   1.00
H2       0.68672    0.44494    0.86323   1.00
H2       0.71532    0.47079    0.89655   1.00
H2       0.72352    0.47637    0.84582   1.00
H2       0.75862    0.37420    0.82651   1.00
H2       0.71308    0.39605    0.81963   1.00
H2       0.75550    0.42161    0.80563   1.00
H2       0.80514    0.47830    0.81726   1.00
H2       0.83708    0.51436    0.83565   1.00
H2       0.85332    0.46663    0.83213   1.00
H2       0.76902    0.52192    0.86901   1.00
H2       0.77068    0.50899    0.91832   1.00
H2       0.80828    0.53705    0.89835   1.00
H2       0.76688    0.42255    1.04297   1.00
H2       0.76809    0.38687    1.07965   1.00
H2       0.78048    0.37420    1.03165   1.00
H2       0.70125    0.41083    1.09641   1.00
H2       0.69574    0.44122    1.05565   1.00
H2       0.66122    0.40427    1.06551   1.00
H2       0.60202    0.36339    0.95058   1.00
H2       0.64435    0.38324    0.92963   1.00
H2       0.64035    0.33218    0.93604   1.00
H2       0.64416    0.33240    1.04646   1.00
H2       0.60212    0.33379    1.01721   1.00
H2       0.64085    0.30239    1.00444   1.00
H2       0.78656    0.34447    0.97073   1.00
H2       0.77381    0.30261    0.94337   1.00
H2       0.75834    0.34883    0.92811   1.00
H2       0.74044    0.26690    0.99487   1.00
H2       0.75622    0.30264    1.02842   1.00
H2       0.70657    0.28870    1.02638   1.00
C4       0.49719    0.22916    1.00116   1.00
C4       0.49785    0.27088    1.00145   1.00
C3       0.47724    0.20636    1.02943   1.00
C3       0.48169    0.29384    1.03194   1.00
C3       0.51802    0.20877    0.97141   1.00
C3       0.51549    0.29114    0.96962   1.00
C2       0.49885    0.14488    0.99966   1.00
C2       0.50115    0.35512    1.00034   1.00
C3       0.47822    0.16538    1.02886   1.00
C3       0.48296    0.33481    1.03124   1.00
C3       0.51804    0.16742    0.97091   1.00
C3       0.51794    0.33238    0.97029   1.00
H1       0.46131    0.21885    1.05119   1.00
H1       0.46874    0.28148    1.05566   1.00
C5       0.53856    0.22980    0.94225   1.00
C5       0.53089    0.27020    0.93745   1.00
H1       0.46348    0.15045    1.05023   1.00
H1       0.47050    0.34990    1.05392   1.00
H1       0.53221    0.15320    0.94877   1.00
H1       0.53284    0.34632    0.94853   1.00
O3       0.56377    0.21039    0.91766   1.00
O3       0.54094    0.28901    0.90321   1.00
Si1      0.61006    0.20753    0.92862   1.00
Si1      0.50712    0.29721    0.87071   1.00
C6       0.62343    0.17462    0.89131   1.00
C6       0.63064    0.25402    0.92075   1.00
C6       0.61875    0.18747    0.97528   1.00
C6       0.45874    0.28307    0.88169   1.00
C6       0.50905    0.34802    0.86448   1.00
C6       0.52252    0.27523    0.82686   1.00
C6       0.59638    0.13806    0.88630   1.00
H2       0.61895    0.19209    0.86504   1.00
C6       0.66621    0.15853    0.88823   1.00
H2       0.61081    0.26642    0.89915   1.00
C6       0.63124    0.28366    0.95547   1.00
C6       0.67226    0.25664    0.90212   1.00
H2       0.59996    0.16169    0.97510   1.00
C6       0.66099    0.17228    0.98401   1.00
C6       0.60752    0.21151    1.01270   1.00
C6       0.45097    0.23929    0.89196   1.00
C6       0.43421    0.30775    0.91134   1.00
H2       0.44386    0.28788    0.85394   1.00
H2       0.49747    0.35949    0.89183   1.00
C6       0.55078    0.36622    0.86041   1.00
C6       0.48366    0.36607    0.83114   1.00
H2       0.54300    0.29625    0.81446   1.00
C6       0.54627    0.23664    0.83089   1.00
C6       0.49119    0.26756    0.79448   1.00
H2       0.56597    0.14654    0.88186   1.00
H2       0.59770    0.11910    0.91191   1.00
H2       0.60486    0.12083    0.86082   1.00
H2       0.67396    0.15392    0.85762   1.00
H2       0.68776    0.17822    0.90063   1.00
H2       0.66961    0.13036    0.90275   1.00
H2       0.63677    0.31328    0.94494   1.00
H2       0.60345    0.28468    0.97079   1.00
H2       0.65418    0.27648    0.97637   1.00
H2       0.67349    0.24138    0.87420   1.00
H2       0.68037    0.28692    0.89605   1.00
H2       0.69437    0.24450    0.92161   1.00
H2       0.68274    0.19486    0.97830   1.00
H2       0.66435    0.16292    1.01436   1.00
H2       0.66787    0.14668    0.96663   1.00
H2       0.63099    0.23098    1.02192   1.00
H2       0.58168    0.22932    1.00899   1.00
H2       0.60165    0.19172    1.03705   1.00
H2       0.45703    0.23312    0.92255   1.00
H2       0.42035    0.23191    0.88687   1.00
H2       0.46835    0.21952    0.87420   1.00
H2       0.40359    0.29875    0.91083   1.00
H2       0.44435    0.30426    0.94122   1.00
H2       0.43449    0.33878    0.90427   1.00
H2       0.54942    0.39798    0.86339   1.00
H2       0.57037    0.35565    0.88324   1.00
H2       0.56396    0.35965    0.83218   1.00
H2       0.45354    0.35584    0.83240   1.00
H2       0.48279    0.39788    0.83379   1.00
H2       0.49556    0.35915    0.80239   1.00
H2       0.52927    0.21344    0.84447   1.00
H2       0.55663    0.22619    0.80261   1.00
H2       0.57189    0.24166    0.84883   1.00
H2       0.50513    0.25956    0.76690   1.00
H2       0.47158    0.24378    0.80264   1.00
H2       0.47362    0.29343    0.78870   1.00
C4       0.50116    0.49719    0.72916   1.00
C4       0.50145    0.49785    0.77088   1.00
C3       0.52943    0.47724    0.70636   1.00
C3       0.53194    0.48169    0.79384   1.00
C3       0.47141    0.51802    0.70877   1.00
C3       0.46962    0.51549    0.79114   1.00
C2       0.49966    0.49885    0.64488   1.00
C2       0.50034    0.50115    0.85512   1.00
C3       0.52886    0.47822    0.66538   1.00
C3       0.53124    0.48296    0.83481   1.00
C3       0.47091    0.51804    0.66742   1.00
C3       0.47029    0.51794    0.83238   1.00
H1       0.55119    0.46131    0.71885   1.00
H1       0.55566    0.46874    0.78148   1.00
C5       0.44225    0.53856    0.72980   1.00
C5       0.43745    0.53089    0.77020   1.00
H1       0.55023    0.46348    0.65045   1.00
H1       0.55392    0.47050    0.84990   1.00
H1       0.44877    0.53221    0.65320   1.00
H1       0.44853    0.53284    0.84632   1.00
O3       0.41766    0.56377    0.71039   1.00
O3       0.40321    0.54094    0.78901   1.00
Si1      0.42862    0.61006    0.70753   1.00
Si1      0.37071    0.50712    0.79721   1.00
C6       0.39131    0.62343    0.67462   1.00
C6       0.42075    0.63064    0.75402   1.00
C6       0.47528    0.61875    0.68747   1.00
C6       0.38169    0.45874    0.78307   1.00
C6       0.36448    0.50905    0.84802   1.00
C6       0.32686    0.52252    0.77523   1.00
C6       0.38630    0.59638    0.63806   1.00
H2       0.36504    0.61895    0.69209   1.00
C6       0.38823    0.66621    0.65853   1.00
H2       0.39915    0.61081    0.76642   1.00
C6       0.45547    0.63124    0.78366   1.00
C6       0.40212    0.67226    0.75664   1.00
H2       0.47510    0.59996    0.66169   1.00
C6       0.48401    0.66099    0.67228   1.00
C6       0.51270    0.60752    0.71151   1.00
C6       0.39196    0.45097    0.73929   1.00
C6       0.41134    0.43421    0.80775   1.00
H2       0.35394    0.44386    0.78788   1.00
H2       0.39183    0.49747    0.85949   1.00
C6       0.36041    0.55078    0.86622   1.00
C6       0.33114    0.48366    0.86607   1.00
H2       0.31446    0.54300    0.79625   1.00
C6       0.33089    0.54627    0.73664   1.00
C6       0.29448    0.49119    0.76756   1.00
H2       0.38186    0.56597    0.64654   1.00
H2       0.41191    0.59770    0.61910   1.00
H2       0.36082    0.60486    0.62083   1.00
H2       0.35762    0.67396    0.65392   1.00
H2       0.40063    0.68776    0.67822   1.00
H2       0.40275    0.66961    0.63036   1.00
H2       0.44494    0.63677    0.81328   1.00
H2       0.47079    0.60345    0.78468   1.00
H2       0.47637    0.65418    0.77648   1.00
H2       0.37420    0.67349    0.74138   1.00
H2       0.39605    0.68037    0.78692   1.00
H2       0.42161    0.69437    0.74450   1.00
H2       0.47830    0.68274    0.69486   1.00
H2       0.51436    0.66435    0.66292   1.00
H2       0.46663    0.66787    0.64668   1.00
H2       0.52192    0.63099    0.73098   1.00
H2       0.50899    0.58168    0.72932   1.00
H2       0.53705    0.60165    0.69172   1.00
H2       0.42255    0.45703    0.73312   1.00
H2       0.38687    0.42035    0.73191   1.00
H2       0.37420    0.46835    0.71952   1.00
H2       0.41083    0.40359    0.79875   1.00
H2       0.44122    0.44435    0.80426   1.00
H2       0.40427    0.43449    0.83878   1.00
H2       0.36339    0.54942    0.89798   1.00
H2       0.38324    0.57037    0.85565   1.00
H2       0.33218    0.56396    0.85965   1.00
H2       0.33240    0.45354    0.85584   1.00
H2       0.33379    0.48279    0.89788   1.00
H2       0.30239    0.49556    0.85915   1.00
H2       0.34447    0.52927    0.71344   1.00
H2       0.30261    0.55663    0.72619   1.00
H2       0.34883    0.57189    0.74166   1.00
H2       0.26690    0.50513    0.75956   1.00
H2       0.30264    0.47158    0.74378   1.00
H2       0.28870    0.47362    0.79343   1.00
C4       0.50116    1.00281    0.77084   1.00
C4       0.50145    1.00215    0.72912   1.00
C3       0.52943    1.02276    0.79364   1.00
C3       0.53194    1.01831    0.70616   1.00
C3       0.47141    0.98198    0.79123   1.00
C3       0.46962    0.98451    0.70886   1.00
C2       0.49966    1.00115    0.85512   1.00
C2       0.50034    0.99885    0.64488   1.00
C3       0.52886    1.02178    0.83462   1.00
C3       0.53124    1.01704    0.66519   1.00
C3       0.47091    0.98196    0.83258   1.00
C3       0.47029    0.98206    0.66762   1.00
H1       0.55119    1.03869    0.78115   1.00
H1       0.55566    1.03126    0.71852   1.00
C5       0.44225    0.96144    0.77020   1.00
C5       0.43745    0.96911    0.72980   1.00
H1       0.55023    1.03652    0.84955   1.00
H1       0.55392    1.02950    0.65010   1.00
H1       0.44877    0.96779    0.84680   1.00
H1       0.44853    0.96716    0.65368   1.00
O3       0.41766    0.93623    0.78961   1.00
O3       0.40321    0.95906    0.71099   1.00
Si1      0.42862    0.88994    0.79247   1.00
Si1      0.37071    0.99288    0.70279   1.00
C6       0.39131    0.87657    0.82538   1.00
C6       0.42075    0.86936    0.74598   1.00
C6       0.47528    0.88125    0.81253   1.00
C6       0.38169    1.04126    0.71693   1.00
C6       0.36448    0.99095    0.65198   1.00
C6       0.32686    0.97748    0.72477   1.00
C6       0.38630    0.90362    0.86194   1.00
H2       0.36504    0.88105    0.80791   1.00
C6       0.38823    0.83379    0.84147   1.00
H2       0.39915    0.88919    0.73358   1.00
C6       0.45547    0.86876    0.71634   1.00
C6       0.40212    0.82774    0.74336   1.00
H2       0.47510    0.90004    0.83831   1.00
C6       0.48401    0.83901    0.82772   1.00
C6       0.51270    0.89248    0.78849   1.00
C6       0.39196    1.04903    0.76071   1.00
C6       0.41134    1.06579    0.69225   1.00
H2       0.35394    1.05614    0.71212   1.00
H2       0.39183    1.00253    0.64051   1.00
C6       0.36041    0.94922    0.63378   1.00
C6       0.33114    1.01634    0.63393   1.00
H2       0.31446    0.95700    0.70375   1.00
C6       0.33089    0.95373    0.76336   1.00
C6       0.29448    1.00881    0.73244   1.00
H2       0.38186    0.93403    0.85346   1.00
H2       0.41191    0.90230    0.88090   1.00
H2       0.36082    0.89514    0.87917   1.00
H2       0.35762    0.82604    0.84608   1.00
H2       0.40063    0.81224    0.82178   1.00
H2       0.40275    0.83039    0.86964   1.00
H2       0.44494    0.86323    0.68672   1.00
H2       0.47079    0.89655    0.71532   1.00
H2       0.47637    0.84582    0.72352   1.00
H2       0.37420    0.82651    0.75862   1.00
H2       0.39605    0.81963    0.71308   1.00
H2       0.42161    0.80563    0.75550   1.00
H2       0.47830    0.81726    0.80514   1.00
H2       0.51436    0.83565    0.83708   1.00
H2       0.46663    0.83213    0.85332   1.00
H2       0.52192    0.86901    0.76902   1.00
H2       0.50899    0.91832    0.77068   1.00
H2       0.53705    0.89835    0.80828   1.00
H2       0.42255    1.04297    0.76688   1.00
H2       0.38687    1.07965    0.76809   1.00
H2       0.37420    1.03165    0.78048   1.00
H2       0.41083    1.09641    0.70125   1.00
H2       0.44122    1.05565    0.69574   1.00
H2       0.40427    1.06551    0.66122   1.00
H2       0.36339    0.95058    0.60202   1.00
H2       0.38324    0.92963    0.64435   1.00
H2       0.33218    0.93604    0.64035   1.00
H2       0.33240    1.04646    0.64416   1.00
H2       0.33379    1.01721    0.60212   1.00
H2       0.30239    1.00444    0.64085   1.00
H2       0.34447    0.97073    0.78656   1.00
H2       0.30261    0.94337    0.77381   1.00
H2       0.34883    0.92811    0.75834   1.00
H2       0.26690    0.99487    0.74044   1.00
H2       0.30264    1.02842    0.75622   1.00
H2       0.28870    1.02638    0.70657   1.00
C4       0.50281    1.27084    0.50116   1.00
C4       0.50215    1.22912    0.50145   1.00
C3       0.52276    1.29364    0.52943   1.00
C3       0.51831    1.20616    0.53194   1.00
C3       0.48198    1.29123    0.47141   1.00
C3       0.48451    1.20886    0.46962   1.00
C2       0.50115    1.35512    0.49966   1.00
C2       0.49885    1.14488    0.50034   1.00
C3       0.52178    1.33462    0.52886   1.00
C3       0.51704    1.16519    0.53124   1.00
C3       0.48196    1.33258    0.47091   1.00
C3       0.48206    1.16762    0.47029   1.00
H1       0.53869    1.28115    0.55119   1.00
H1       0.53126    1.21852    0.55566   1.00
C5       0.46144    1.27020    0.44225   1.00
C5       0.46911    1.22980    0.43745   1.00
H1       0.53652    1.34955    0.55023   1.00
H1       0.52950    1.15010    0.55392   1.00
H1       0.46779    1.34680    0.44877   1.00
H1       0.46716    1.15368    0.44853   1.00
O3       0.43623    1.28961    0.41766   1.00
O3       0.45906    1.21099    0.40321   1.00
Si1      0.38994    1.29247    0.42862   1.00
Si1      0.49288    1.20279    0.37071   1.00
C6       0.37657    1.32538    0.39131   1.00
C6       0.36936    1.24598    0.42075   1.00
C6       0.38125    1.31253    0.47528   1.00
C6       0.54126    1.21693    0.38169   1.00
C6       0.49095    1.15198    0.36448   1.00
C6       0.47748    1.22477    0.32686   1.00
C6       0.40362    1.36194    0.38630   1.00
H2       0.38105    1.30791    0.36504   1.00
C6       0.33379    1.34147    0.38823   1.00
H2       0.38919    1.23358    0.39915   1.00
C6       0.36876    1.21634    0.45547   1.00
C6       0.32774    1.24336    0.40212   1.00
H2       0.40004    1.33831    0.47510   1.00
C6       0.33901    1.32772    0.48401   1.00
C6       0.39248    1.28849    0.51270   1.00
C6       0.54903    1.26071    0.39196   1.00
C6       0.56579    1.19225    0.41134   1.00
H2       0.55614    1.21212    0.35394   1.00
H2       0.50253    1.14051    0.39183   1.00
C6       0.44922    1.13378    0.36041   1.00
C6       0.51634    1.13393    0.33114   1.00
H2       0.45700    1.20375    0.31446   1.00
C6       0.45373    1.26336    0.33089   1.00
C6       0.50881    1.23244    0.29448   1.00
H2       0.43403    1.35346    0.38186   1.00
H2       0.40230    1.38090    0.41191   1.00
H2       0.39514    1.37917    0.36082   1.00
H2       0.32604    1.34608    0.35762   1.00
H2       0.31224    1.32178    0.40063   1.00
H2       0.33039    1.36964    0.40275   1.00
H2       0.36323    1.18672    0.44494   1.00
H2       0.39655    1.21532    0.47079   1.00
H2       0.34582    1.22352    0.47637   1.00
H2       0.32651    1.25862    0.37420   1.00
H2       0.31963    1.21308    0.39605   1.00
H2       0.30563    1.25550    0.42161   1.00
H2       0.31726    1.30514    0.47830   1.00
H2       0.33565    1.33708    0.51436   1.00
H2       0.33213    1.35332    0.46663   1.00
H2       0.36901    1.26902    0.52192   1.00
H2       0.41832    1.27068    0.50899   1.00
H2       0.39835    1.30828    0.53705   1.00
H2       0.54297    1.26688    0.42255   1.00
H2       0.57965    1.26809    0.38687   1.00
H2       0.53165    1.28048    0.37420   1.00
H2       0.59641    1.20125    0.41083   1.00
H2       0.55565    1.19574    0.44122   1.00
H2       0.56551    1.16122    0.40427   1.00
H2       0.45058    1.10202    0.36339   1.00
H2       0.42963    1.14435    0.38324   1.00
H2       0.43604    1.14035    0.33218   1.00
H2       0.54646    1.14416    0.33240   1.00
H2       0.51721    1.10212    0.33379   1.00
H2       0.50444    1.14085    0.30239   1.00
H2       0.47073    1.28656    0.34447   1.00
H2       0.44337    1.27381    0.30261   1.00
H2       0.42811    1.25834    0.34883   1.00
H2       0.49487    1.24044    0.26690   1.00
H2       0.52842    1.25622    0.30264   1.00
H2       0.52638    1.20657    0.28870   1.00
C4       0.22916    1.00116    0.49719   1.00
C4       0.27088    1.00145    0.49785   1.00
C3       0.20636    1.02943    0.47724   1.00
C3       0.29384    1.03194    0.48169   1.00
C3       0.20877    0.97141    0.51802   1.00
C3       0.29114    0.96962    0.51549   1.00
C2       0.14488    0.99966    0.49885   1.00
C2       0.35512    1.00034    0.50115   1.00
C3       0.16538    1.02886    0.47822   1.00
C3       0.33481    1.03124    0.48296   1.00
C3       0.16742    0.97091    0.51804   1.00
C3       0.33238    0.97029    0.51794   1.00
H1       0.21885    1.05119    0.46131   1.00
H1       0.28148    1.05566    0.46874   1.00
C5       0.22980    0.94225    0.53856   1.00
C5       0.27020    0.93745    0.53089   1.00
H1       0.15045    1.05023    0.46348   1.00
H1       0.34990    1.05392    0.47050   1.00
H1       0.15320    0.94877    0.53221   1.00
H1       0.34632    0.94853    0.53284   1.00
O3       0.21039    0.91766    0.56377   1.00
O3       0.28901    0.90321    0.54094   1.00
Si1      0.20753    0.92862    0.61006   1.00
Si1      0.29721    0.87071    0.50712   1.00
C6       0.17462    0.89131    0.62343   1.00
C6       0.25402    0.92075    0.63064   1.00
C6       0.18747    0.97528    0.61875   1.00
C6       0.28307    0.88169    0.45874   1.00
C6       0.34802    0.86448    0.50905   1.00
C6       0.27523    0.82686    0.52252   1.00
C6       0.13806    0.88630    0.59638   1.00
H2       0.19209    0.86504    0.61895   1.00
C6       0.15853    0.88823    0.66621   1.00
H2       0.26642    0.89915    0.61081   1.00
C6       0.28366    0.95547    0.63124   1.00
C6       0.25664    0.90212    0.67226   1.00
H2       0.16169    0.97510    0.59996   1.00
C6       0.17228    0.98401    0.66099   1.00
C6       0.21151    1.01270    0.60752   1.00
C6       0.23929    0.89196    0.45097   1.00
C6       0.30775    0.91134    0.43421   1.00
H2       0.28788    0.85394    0.44386   1.00
H2       0.35949    0.89183    0.49747   1.00
C6       0.36622    0.86041    0.55078   1.00
C6       0.36607    0.83114    0.48366   1.00
H2       0.29625    0.81446    0.54300   1.00
C6       0.23664    0.83089    0.54627   1.00
C6       0.26756    0.79448    0.49119   1.00
H2       0.14654    0.88186    0.56597   1.00
H2       0.11910    0.91191    0.59770   1.00
H2       0.12083    0.86082    0.60486   1.00
H2       0.15392    0.85762    0.67396   1.00
H2       0.17822    0.90063    0.68776   1.00
H2       0.13036    0.90275    0.66961   1.00
H2       0.31328    0.94494    0.63677   1.00
H2       0.28468    0.97079    0.60345   1.00
H2       0.27648    0.97637    0.65418   1.00
H2       0.24138    0.87420    0.67349   1.00
H2       0.28692    0.89605    0.68037   1.00
H2       0.24450    0.92161    0.69437   1.00
H2       0.19486    0.97830    0.68274   1.00
H2       0.16292    1.01436    0.66435   1.00
H2       0.14668    0.96663    0.66787   1.00
H2       0.23098    1.02192    0.63099   1.00
H2       0.22932    1.00899    0.58168   1.00
H2       0.19172    1.03705    0.60165   1.00
H2       0.23312    0.92255    0.45703   1.00
H2       0.23191    0.88687    0.42035   1.00
H2       0.21952    0.87420    0.46835   1.00
H2       0.29875    0.91083    0.40359   1.00
H2       0.30426    0.94122    0.44435   1.00
H2       0.33878    0.90427    0.43449   1.00
H2       0.39798    0.86339    0.54942   1.00
H2       0.35565    0.88324    0.57037   1.00
H2       0.35965    0.83218    0.56396   1.00
H2       0.35584    0.83240    0.45354   1.00
H2       0.39788    0.83379    0.48279   1.00
H2       0.35915    0.80239    0.49556   1.00
H2       0.21344    0.84447    0.52927   1.00
H2       0.22619    0.80261    0.55663   1.00
H2       0.24166    0.84883    0.57189   1.00
H2       0.25956    0.76690    0.50513   1.00
H2       0.24378    0.80264    0.47158   1.00
H2       0.29343    0.78870    0.47362   1.00
C4       0.77084    1.00116    0.50281   1.00
C4       0.72912    1.00145    0.50215   1.00
C3       0.79364    1.02943    0.52276   1.00
C3       0.70616    1.03194    0.51831   1.00
C3       0.79123    0.97141    0.48198   1.00
C3       0.70886    0.96962    0.48451   1.00
C2       0.85512    0.99966    0.50115   1.00
C2       0.64488    1.00034    0.49885   1.00
C3       0.83462    1.02886    0.52178   1.00
C3       0.66519    1.03124    0.51704   1.00
C3       0.83258    0.97091    0.48196   1.00
C3       0.66762    0.97029    0.48206   1.00
H1       0.78115    1.05119    0.53869   1.00
H1       0.71852    1.05566    0.53126   1.00
C5       0.77020    0.94225    0.46144   1.00
C5       0.72980    0.93745    0.46911   1.00
H1       0.84955    1.05023    0.53652   1.00
H1       0.65010    1.05392    0.52950   1.00
H1       0.84680    0.94877    0.46779   1.00
H1       0.65368    0.94853    0.46716   1.00
O3       0.78961    0.91766    0.43623   1.00
O3       0.71099    0.90321    0.45906   1.00
Si1      0.79247    0.92862    0.38994   1.00
Si1      0.70279    0.87071    0.49288   1.00
C6       0.82538    0.89131    0.37657   1.00
C6       0.74598    0.92075    0.36936   1.00
C6       0.81253    0.97528    0.38125   1.00
C6       0.71693    0.88169    0.54126   1.00
C6       0.65198    0.86448    0.49095   1.00
C6       0.72477    0.82686    0.47748   1.00
C6       0.86194    0.88630    0.40362   1.00
H2       0.80791    0.86504    0.38105   1.00
C6       0.84147    0.88823    0.33379   1.00
H2       0.73358    0.89915    0.38919   1.00
C6       0.71634    0.95547    0.36876   1.00
C6       0.74336    0.90212    0.32774   1.00
H2       0.83831    0.97510    0.40004   1.00
C6       0.82772    0.98401    0.33901   1.00
C6       0.78849    1.01270    0.39248   1.00
C6       0.76071    0.89196    0.54903   1.00
C6       0.69225    0.91134    0.56579   1.00
H2       0.71212    0.85394    0.55614   1.00
H2       0.64051    0.89183    0.50253   1.00
C6       0.63378    0.86041    0.44922   1.00
C6       0.63393    0.83114    0.51634   1.00
H2       0.70375    0.81446    0.45700   1.00
C6       0.76336    0.83089    0.45373   1.00
C6       0.73244    0.79448    0.50881   1.00
H2       0.85346    0.88186    0.43403   1.00
H2       0.88090    0.91191    0.40230   1.00
H2       0.87917    0.86082    0.39514   1.00
H2       0.84608    0.85762    0.32604   1.00
H2       0.82178    0.90063    0.31224   1.00
H2       0.86964    0.90275    0.33039   1.00
H2       0.68672    0.94494    0.36323   1.00
H2       0.71532    0.97079    0.39655   1.00
H2       0.72352    0.97637    0.34582   1.00
H2       0.75862    0.87420    0.32651   1.00
H2       0.71308    0.89605    0.31963   1.00
H2       0.75550    0.92161    0.30563   1.00
H2       0.80514    0.97830    0.31726   1.00
H2       0.83708    1.01436    0.33565   1.00
H2       0.85332    0.96663    0.33213   1.00
H2       0.76902    1.02192    0.36901   1.00
H2       0.77068    1.00899    0.41832   1.00
H2       0.80828    1.03705    0.39835   1.00
H2       0.76688    0.92255    0.54297   1.00
H2       0.76809    0.88687    0.57965   1.00
H2       0.78048    0.87420    0.53165   1.00
H2       0.70125    0.91083    0.59641   1.00
H2       0.69574    0.94122    0.55565   1.00
H2       0.66122    0.90427    0.56551   1.00
H2       0.60202    0.86339    0.45058   1.00
H2       0.64435    0.88324    0.42963   1.00
H2       0.64035    0.83218    0.43604   1.00
H2       0.64416    0.83240    0.54646   1.00
H2       0.60212    0.83379    0.51721   1.00
H2       0.64085    0.80239    0.50444   1.00
H2       0.78656    0.84447    0.47073   1.00
H2       0.77381    0.80261    0.44337   1.00
H2       0.75834    0.84883    0.42811   1.00
H2       0.74044    0.76690    0.49487   1.00
H2       0.75622    0.80264    0.52842   1.00
H2       0.70657    0.78870    0.52638   1.00
C4       0.49719    0.72916    0.50116   1.00
C4       0.49785    0.77088    0.50145   1.00
C3       0.47724    0.70636    0.52943   1.00
C3       0.48169    0.79384    0.53194   1.00
C3       0.51802    0.70877    0.47141   1.00
C3       0.51549    0.79114    0.46962   1.00
C2       0.49885    0.64488    0.49966   1.00
C2       0.50115    0.85512    0.50034   1.00
C3       0.47822    0.66538    0.52886   1.00
C3       0.48296    0.83481    0.53124   1.00
C3       0.51804    0.66742    0.47091   1.00
C3       0.51794    0.83238    0.47029   1.00
H1       0.46131    0.71885    0.55119   1.00
H1       0.46874    0.78148    0.55566   1.00
C5       0.53856    0.72980    0.44225   1.00
C5       0.53089    0.77020    0.43745   1.00
H1       0.46348    0.65045    0.55023   1.00
H1       0.47050    0.84990    0.55392   1.00
H1       0.53221    0.65320    0.44877   1.00
H1       0.53284    0.84632    0.44853   1.00
O3       0.56377    0.71039    0.41766   1.00
O3       0.54094    0.78901    0.40321   1.00
Si1      0.61006    0.70753    0.42862   1.00
Si1      0.50712    0.79721    0.37071   1.00
C6       0.62343    0.67462    0.39131   1.00
C6       0.63064    0.75402    0.42075   1.00
C6       0.61875    0.68747    0.47528   1.00
C6       0.45874    0.78307    0.38169   1.00
C6       0.50905    0.84802    0.36448   1.00
C6       0.52252    0.77523    0.32686   1.00
C6       0.59638    0.63806    0.38630   1.00
H2       0.61895    0.69209    0.36504   1.00
C6       0.66621    0.65853    0.38823   1.00
H2       0.61081    0.76642    0.39915   1.00
C6       0.63124    0.78366    0.45547   1.00
C6       0.67226    0.75664    0.40212   1.00
H2       0.59996    0.66169    0.47510   1.00
C6       0.66099    0.67228    0.48401   1.00
C6       0.60752    0.71151    0.51270   1.00
C6       0.45097    0.73929    0.39196   1.00
C6       0.43421    0.80775    0.41134   1.00
H2       0.44386    0.78788    0.35394   1.00
H2       0.49747    0.85949    0.39183   1.00
C6       0.55078    0.86622    0.36041   1.00
C6       0.48366    0.86607    0.33114   1.00
H2       0.54300    0.79625    0.31446   1.00
C6       0.54627    0.73664    0.33089   1.00
C6       0.49119    0.76756    0.29448   1.00
H2       0.56597    0.64654    0.38186   1.00
H2       0.59770    0.61910    0.41191   1.00
H2       0.60486    0.62083    0.36082   1.00
H2       0.67396    0.65392    0.35762   1.00
H2       0.68776    0.67822    0.40063   1.00
H2       0.66961    0.63036    0.40275   1.00
H2       0.63677    0.81328    0.44494   1.00
H2       0.60345    0.78468    0.47079   1.00
H2       0.65418    0.77648    0.47637   1.00
H2       0.67349    0.74138    0.37420   1.00
H2       0.68037    0.78692    0.39605   1.00
H2       0.69437    0.74450    0.42161   1.00
H2       0.68274    0.69486    0.47830   1.00
H2       0.66435    0.66292    0.51436   1.00
H2       0.66787    0.64668    0.46663   1.00
H2       0.63099    0.73098    0.52192   1.00
H2       0.58168    0.72932    0.50899   1.00
H2       0.60165    0.69172    0.53705   1.00
H2       0.45703    0.73312    0.42255   1.00
H2       0.42035    0.73191    0.38687   1.00
H2       0.46835    0.71952    0.37420   1.00
H2       0.40359    0.79875    0.41083   1.00
H2       0.44435    0.80426    0.44122   1.00
H2       0.43449    0.83878    0.40427   1.00
H2       0.54942    0.89798    0.36339   1.00
H2       0.57037    0.85565    0.38324   1.00
H2       0.56396    0.85965    0.33218   1.00
H2       0.45354    0.85584    0.33240   1.00
H2       0.48279    0.89788    0.33379   1.00
H2       0.49556    0.85915    0.30239   1.00
H2       0.52927    0.71344    0.34447   1.00
H2       0.55663    0.72619    0.30261   1.00
H2       0.57189    0.74166    0.34883   1.00
H2       0.50513    0.75956    0.26690   1.00
H2       0.47158    0.74378    0.30264   1.00
H2       0.47362    0.79343    0.28870   1.00
C4       0.50116    0.99719    0.22916   1.00
C4       0.50145    0.99785    0.27088   1.00
C3       0.52943    0.97724    0.20636   1.00
C3       0.53194    0.98169    0.29384   1.00
C3       0.47141    1.01802    0.20877   1.00
C3       0.46962    1.01549    0.29114   1.00
C2       0.49966    0.99885    0.14488   1.00
C2       0.50034    1.00115    0.35512   1.00
C3       0.52886    0.97822    0.16538   1.00
C3       0.53124    0.98296    0.33481   1.00
C3       0.47091    1.01804    0.16742   1.00
C3       0.47029    1.01794    0.33238   1.00
H1       0.55119    0.96131    0.21885   1.00
H1       0.55566    0.96874    0.28148   1.00
C5       0.44225    1.03856    0.22980   1.00
C5       0.43745    1.03089    0.27020   1.00
H1       0.55023    0.96348    0.15045   1.00
H1       0.55392    0.97050    0.34990   1.00
H1       0.44877    1.03221    0.15320   1.00
H1       0.44853    1.03284    0.34632   1.00
O3       0.41766    1.06377    0.21039   1.00
O3       0.40321    1.04094    0.28901   1.00
Si1      0.42862    1.11006    0.20753   1.00
Si1      0.37071    1.00712    0.29721   1.00
C6       0.39131    1.12343    0.17462   1.00
C6       0.42075    1.13064    0.25402   1.00
C6       0.47528    1.11875    0.18747   1.00
C6       0.38169    0.95874    0.28307   1.00
C6       0.36448    1.00905    0.34802   1.00
C6       0.32686    1.02252    0.27523   1.00
C6       0.38630    1.09638    0.13806   1.00
H2       0.36504    1.11895    0.19209   1.00
C6       0.38823    1.16621    0.15853   1.00
H2       0.39915    1.11081    0.26642   1.00
C6       0.45547    1.13124    0.28366   1.00
C6       0.40212    1.17226    0.25664   1.00
H2       0.47510    1.09996    0.16169   1.00
C6       0.48401    1.16099    0.17228   1.00
C6       0.51270    1.10752    0.21151   1.00
C6       0.39196    0.95097    0.23929   1.00
C6       0.41134    0.93421    0.30775   1.00
H2       0.35394    0.94386    0.28788   1.00
H2       0.39183    0.99747    0.35949   1.00
C6       0.36041    1.05078    0.36622   1.00
C6       0.33114    0.98366    0.36607   1.00
H2       0.31446    1.04300    0.29625   1.00
C6       0.33089    1.04627    0.23664   1.00
C6       0.29448    0.99119    0.26756   1.00
H2       0.38186    1.06597    0.14654   1.00
H2       0.41191    1.09770    0.11910   1.00
H2       0.36082    1.10486    0.12083   1.00
H2       0.35762    1.17396    0.15392   1.00
H2       0.40063    1.18776    0.17822   1.00
H2       0.40275    1.16961    0.13036   1.00
H2       0.44494    1.13677    0.31328   1.00
H2       0.47079    1.10345    0.28468   1.00
H2       0.47637    1.15418    0.27648   1.00
H2       0.37420    1.17349    0.24138   1.00
H2       0.39605    1.18037    0.28692   1.00
H2       0.42161    1.19437    0.24450   1.00
H2       0.47830    1.18274    0.19486   1.00
H2       0.51436    1.16435    0.16292   1.00
H2       0.46663    1.16787    0.14668   1.00
H2       0.52192    1.13099    0.23098   1.00
H2       0.50899    1.08168    0.22932   1.00
H2       0.53705    1.10165    0.19172   1.00
H2       0.42255    0.95703    0.23312   1.00
H2       0.38687    0.92035    0.23191   1.00
H2       0.37420    0.96835    0.21952   1.00
H2       0.41083    0.90359    0.29875   1.00
H2       0.44122    0.94435    0.30426   1.00
H2       0.40427    0.93449    0.33878   1.00
H2       0.36339    1.04942    0.39798   1.00
H2       0.38324    1.07037    0.35565   1.00
H2       0.33218    1.06396    0.35965   1.00
H2       0.33240    0.95354    0.35584   1.00
H2       0.33379    0.98279    0.39788   1.00
H2       0.30239    0.99556    0.35915   1.00
H2       0.34447    1.02927    0.21344   1.00
H2       0.30261    1.05663    0.22619   1.00
H2       0.34883    1.07189    0.24166   1.00
H2       0.26690    1.00513    0.25956   1.00
H2       0.30264    0.97158    0.24378   1.00
H2       0.28870    0.97362    0.29343   1.00
C4       1.00116    0.50281    0.77084   1.00
C4       1.00145    0.50215    0.72912   1.00
C3       1.02943    0.52276    0.79364   1.00
C3       1.03194    0.51831    0.70616   1.00
C3       0.97141    0.48198    0.79123   1.00
C3       0.96962    0.48451    0.70886   1.00
C2       0.99966    0.50115    0.85512   1.00
C2       1.00034    0.49885    0.64488   1.00
C3       1.02886    0.52178    0.83462   1.00
C3       1.03124    0.51704    0.66519   1.00
C3       0.97091    0.48196    0.83258   1.00
C3       0.97029    0.48206    0.66762   1.00
H1       1.05119    0.53869    0.78115   1.00
H1       1.05566    0.53126    0.71852   1.00
C5       0.94225    0.46144    0.77020   1.00
C5       0.93745    0.46911    0.72980   1.00
H1       1.05023    0.53652    0.84955   1.00
H1       1.05392    0.52950    0.65010   1.00
H1       0.94877    0.46779    0.84680   1.00
H1       0.94853    0.46716    0.65368   1.00
O3       0.91766    0.43623    0.78961   1.00
O3       0.90321    0.45906    0.71099   1.00
Si1      0.92862    0.38994    0.79247   1.00
Si1      0.87071    0.49288    0.70279   1.00
C6       0.89131    0.37657    0.82538   1.00
C6       0.92075    0.36936    0.74598   1.00
C6       0.97528    0.38125    0.81253   1.00
C6       0.88169    0.54126    0.71693   1.00
C6       0.86448    0.49095    0.65198   1.00
C6       0.82686    0.47748    0.72477   1.00
C6       0.88630    0.40362    0.86194   1.00
H2       0.86504    0.38105    0.80791   1.00
C6       0.88823    0.33379    0.84147   1.00
H2       0.89915    0.38919    0.73358   1.00
C6       0.95547    0.36876    0.71634   1.00
C6       0.90212    0.32774    0.74336   1.00
H2       0.97510    0.40004    0.83831   1.00
C6       0.98401    0.33901    0.82772   1.00
C6       1.01270    0.39248    0.78849   1.00
C6       0.89196    0.54903    0.76071   1.00
C6       0.91134    0.56579    0.69225   1.00
H2       0.85394    0.55614    0.71212   1.00
H2       0.89183    0.50253    0.64051   1.00
C6       0.86041    0.44922    0.63378   1.00
C6       0.83114    0.51634    0.63393   1.00
H2       0.81446    0.45700    0.70375   1.00
C6       0.83089    0.45373    0.76336   1.00
C6       0.79448    0.50881    0.73244   1.00
H2       0.88186    0.43403    0.85346   1.00
H2       0.91191    0.40230    0.88090   1.00
H2       0.86082    0.39514    0.87917   1.00
H2       0.85762    0.32604    0.84608   1.00
H2       0.90063    0.31224    0.82178   1.00
H2       0.90275    0.33039    0.86964   1.00
H2       0.94494    0.36323    0.68672   1.00
H2       0.97079    0.39655    0.71532   1.00
H2       0.97637    0.34582    0.72352   1.00
H2       0.87420    0.32651    0.75862   1.00
H2       0.89605    0.31963    0.71308   1.00
H2       0.92161    0.30563    0.75550   1.00
H2       0.97830    0.31726    0.80514   1.00
H2       1.01436    0.33565    0.83708   1.00
H2       0.96663    0.33213    0.85332   1.00
H2       1.02192    0.36901    0.76902   1.00
H2       1.00899    0.41832    0.77068   1.00
H2       1.03705    0.39835    0.80828   1.00
H2       0.92255    0.54297    0.76688   1.00
H2       0.88687    0.57965    0.76809   1.00
H2       0.87420    0.53165    0.78048   1.00
H2       0.91083    0.59641    0.70125   1.00
H2       0.94122    0.55565    0.69574   1.00
H2       0.90427    0.56551    0.66122   1.00
H2       0.86339    0.45058    0.60202   1.00
H2       0.88324    0.42963    0.64435   1.00
H2       0.83218    0.43604    0.64035   1.00
H2       0.83240    0.54646    0.64416   1.00
H2       0.83379    0.51721    0.60212   1.00
H2       0.80239    0.50444    0.64085   1.00
H2       0.84447    0.47073    0.78656   1.00
H2       0.80261    0.44337    0.77381   1.00
H2       0.84883    0.42811    0.75834   1.00
H2       0.76690    0.49487    0.74044   1.00
H2       0.80264    0.52842    0.75622   1.00
H2       0.78870    0.52638    0.70657   1.00
C4       1.00281    0.77084    0.50116   1.00
C4       1.00215    0.72912    0.50145   1.00
C3       1.02276    0.79364    0.52943   1.00
C3       1.01831    0.70616    0.53194   1.00
C3       0.98198    0.79123    0.47141   1.00
C3       0.98451    0.70886    0.46962   1.00
C2       1.00115    0.85512    0.49966   1.00
C2       0.99885    0.64488    0.50034   1.00
C3       1.02178    0.83462    0.52886   1.00
C3       1.01704    0.66519    0.53124   1.00
C3       0.98196    0.83258    0.47091   1.00
C3       0.98206    0.66762    0.47029   1.00
H1       1.03869    0.78115    0.55119   1.00
H1       1.03126    0.71852    0.55566   1.00
C5       0.96144    0.77020    0.44225   1.00
C5       0.96911    0.72980    0.43745   1.00
H1       1.03652    0.84955    0.55023   1.00
H1       1.02950    0.65010    0.55392   1.00
H1       0.96779    0.84680    0.44877   1.00
H1       0.96716    0.65368    0.44853   1.00
O3       0.93623    0.78961    0.41766   1.00
O3       0.95906    0.71099    0.40321   1.00
Si1      0.88994    0.79247    0.42862   1.00
Si1      0.99288    0.70279    0.37071   1.00
C6       0.87657    0.82538    0.39131   1.00
C6       0.86936    0.74598    0.42075   1.00
C6       0.88125    0.81253    0.47528   1.00
C6       1.04126    0.71693    0.38169   1.00
C6       0.99095    0.65198    0.36448   1.00
C6       0.97748    0.72477    0.32686   1.00
C6       0.90362    0.86194    0.38630   1.00
H2       0.88105    0.80791    0.36504   1.00
C6       0.83379    0.84147    0.38823   1.00
H2       0.88919    0.73358    0.39915   1.00
C6       0.86876    0.71634    0.45547   1.00
C6       0.82774    0.74336    0.40212   1.00
H2       0.90004    0.83831    0.47510   1.00
C6       0.83901    0.82772    0.48401   1.00
C6       0.89248    0.78849    0.51270   1.00
C6       1.04903    0.76071    0.39196   1.00
C6       1.06579    0.69225    0.41134   1.00
H2       1.05614    0.71212    0.35394   1.00
H2       1.00253    0.64051    0.39183   1.00
C6       0.94922    0.63378    0.36041   1.00
C6       1.01634    0.63393    0.33114   1.00
H2       0.95700    0.70375    0.31446   1.00
C6       0.95373    0.76336    0.33089   1.00
C6       1.00881    0.73244    0.29448   1.00
H2       0.93403    0.85346    0.38186   1.00
H2       0.90230    0.88090    0.41191   1.00
H2       0.89514    0.87917    0.36082   1.00
H2       0.82604    0.84608    0.35762   1.00
H2       0.81224    0.82178    0.40063   1.00
H2       0.83039    0.86964    0.40275   1.00
H2       0.86323    0.68672    0.44494   1.00
H2       0.89655    0.71532    0.47079   1.00
H2       0.84582    0.72352    0.47637   1.00
H2       0.82651    0.75862    0.37420   1.00
H2       0.81963    0.71308    0.39605   1.00
H2       0.80563    0.75550    0.42161   1.00
H2       0.81726    0.80514    0.47830   1.00
H2       0.83565    0.83708    0.51436   1.00
H2       0.83213    0.85332    0.46663   1.00
H2       0.86901    0.76902    0.52192   1.00
H2       0.91832    0.77068    0.50899   1.00
H2       0.89835    0.80828    0.53705   1.00
H2       1.04297    0.76688    0.42255   1.00
H2       1.07965    0.76809    0.38687   1.00
H2       1.03165    0.78048    0.37420   1.00
H2       1.09641    0.70125    0.41083   1.00
H2       1.05565    0.69574    0.44122   1.00
H2       1.06551    0.66122    0.40427   1.00
H2       0.95058    0.60202    0.36339   1.00
H2       0.92963    0.64435    0.38324   1.00
H2       0.93604    0.64035    0.33218   1.00
H2       1.04646    0.64416    0.33240   1.00
H2       1.01721    0.60212    0.33379   1.00
H2       1.00444    0.64085    0.30239   1.00
H2       0.97073    0.78656    0.34447   1.00
H2       0.94337    0.77381    0.30261   1.00
H2       0.92811    0.75834    0.34883   1.00
H2       0.99487    0.74044    0.26690   1.00
H2       1.02842    0.75622    0.30264   1.00
H2       1.02638    0.70657    0.28870   1.00
C4       0.72916    0.50116    0.49719   1.00
C4       0.77088    0.50145    0.49785   1.00
C3       0.70636    0.52943    0.47724   1.00
C3       0.79384    0.53194    0.48169   1.00
C3       0.70877    0.47141    0.51802   1.00
C3       0.79114    0.46962    0.51549   1.00
C2       0.64488    0.49966    0.49885   1.00
C2       0.85512    0.50034    0.50115   1.00
C3       0.66538    0.52886    0.47822   1.00
C3       0.83481    0.53124    0.48296   1.00
C3       0.66742    0.47091    0.51804   1.00
C3       0.83238    0.47029    0.51794   1.00
H1       0.71885    0.55119    0.46131   1.00
H1       0.78148    0.55566    0.46874   1.00
C5       0.72980    0.44225    0.53856   1.00
C5       0.77020    0.43745    0.53089   1.00
H1       0.65045    0.55023    0.46348   1.00
H1       0.84990    0.55392    0.47050   1.00
H1       0.65320    0.44877    0.53221   1.00
H1       0.84632    0.44853    0.53284   1.00
O3       0.71039    0.41766    0.56377   1.00
O3       0.78901    0.40321    0.54094   1.00
Si1      0.70753    0.42862    0.61006   1.00
Si1      0.79721    0.37071    0.50712   1.00
C6       0.67462    0.39131    0.62343   1.00
C6       0.75402    0.42075    0.63064   1.00
C6       0.68747    0.47528    0.61875   1.00
C6       0.78307    0.38169    0.45874   1.00
C6       0.84802    0.36448    0.50905   1.00
C6       0.77523    0.32686    0.52252   1.00
C6       0.63806    0.38630    0.59638   1.00
H2       0.69209    0.36504    0.61895   1.00
C6       0.65853    0.38823    0.66621   1.00
H2       0.76642    0.39915    0.61081   1.00
C6       0.78366    0.45547    0.63124   1.00
C6       0.75664    0.40212    0.67226   1.00
H2       0.66169    0.47510    0.59996   1.00
C6       0.67228    0.48401    0.66099   1.00
C6       0.71151    0.51270    0.60752   1.00
C6       0.73929    0.39196    0.45097   1.00
C6       0.80775    0.41134    0.43421   1.00
H2       0.78788    0.35394    0.44386   1.00
H2       0.85949    0.39183    0.49747   1.00
C6       0.86622    0.36041    0.55078   1.00
C6       0.86607    0.33114    0.48366   1.00
H2       0.79625    0.31446    0.54300   1.00
C6       0.73664    0.33089    0.54627   1.00
C6       0.76756    0.29448    0.49119   1.00
H2       0.64654    0.38186    0.56597   1.00
H2       0.61910    0.41191    0.59770   1.00
H2       0.62083    0.36082    0.60486   1.00
H2       0.65392    0.35762    0.67396   1.00
H2       0.67822    0.40063    0.68776   1.00
H2       0.63036    0.40275    0.66961   1.00
H2       0.81328    0.44494    0.63677   1.00
H2       0.78468    0.47079    0.60345   1.00
H2       0.77648    0.47637    0.65418   1.00
H2       0.74138    0.37420    0.67349   1.00
H2       0.78692    0.39605    0.68037   1.00
H2       0.74450    0.42161    0.69437   1.00
H2       0.69486    0.47830    0.68274   1.00
H2       0.66292    0.51436    0.66435   1.00
H2       0.64668    0.46663    0.66787   1.00
H2       0.73098    0.52192    0.63099   1.00
H2       0.72932    0.50899    0.58168   1.00
H2       0.69172    0.53705    0.60165   1.00
H2       0.73312    0.42255    0.45703   1.00
H2       0.73191    0.38687    0.42035   1.00
H2       0.71952    0.37420    0.46835   1.00
H2       0.79875    0.41083    0.40359   1.00
H2       0.80426    0.44122    0.44435   1.00
H2       0.83878    0.40427    0.43449   1.00
H2       0.89798    0.36339    0.54942   1.00
H2       0.85565    0.38324    0.57037   1.00
H2       0.85965    0.33218    0.56396   1.00
H2       0.85584    0.33240    0.45354   1.00
H2       0.89788    0.33379    0.48279   1.00
H2       0.85915    0.30239    0.49556   1.00
H2       0.71344    0.34447    0.52927   1.00
H2       0.72619    0.30261    0.55663   1.00
H2       0.74166    0.34883    0.57189   1.00
H2       0.75956    0.26690    0.50513   1.00
H2       0.74378    0.30264    0.47158   1.00
H2       0.79343    0.28870    0.47362   1.00
C4       1.27084    0.50116    0.50281   1.00
C4       1.22912    0.50145    0.50215   1.00
C3       1.29364    0.52943    0.52276   1.00
C3       1.20616    0.53194    0.51831   1.00
C3       1.29123    0.47141    0.48198   1.00
C3       1.20886    0.46962    0.48451   1.00
C2       1.35512    0.49966    0.50115   1.00
C2       1.14488    0.50034    0.49885   1.00
C3       1.33462    0.52886    0.52178   1.00
C3       1.16519    0.53124    0.51704   1.00
C3       1.33258    0.47091    0.48196   1.00
C3       1.16762    0.47029    0.48206   1.00
H1       1.28115    0.55119    0.53869   1.00
H1       1.21852    0.55566    0.53126   1.00
C5       1.27020    0.44225    0.46144   1.00
C5       1.22980    0.43745    0.46911   1.00
H1       1.34955    0.55023    0.53652   1.00
H1       1.15010    0.55392    0.52950   1.00
H1       1.34680    0.44877    0.46779   1.00
H1       1.15368    0.44853    0.46716   1.00
O3       1.28961    0.41766    0.43623   1.00
O3       1.21099    0.40321    0.45906   1.00
Si1      1.29247    0.42862    0.38994   1.00
Si1      1.20279    0.37071    0.49288   1.00
C6       1.32538    0.39131    0.37657   1.00
C6       1.24598    0.42075    0.36936   1.00
C6       1.31253    0.47528    0.38125   1.00
C6       1.21693    0.38169    0.54126   1.00
C6       1.15198    0.36448    0.49095   1.00
C6       1.22477    0.32686    0.47748   1.00
C6       1.36194    0.38630    0.40362   1.00
H2       1.30791    0.36504    0.38105   1.00
C6       1.34147    0.38823    0.33379   1.00
H2       1.23358    0.39915    0.38919   1.00
C6       1.21634    0.45547    0.36876   1.00
C6       1.24336    0.40212    0.32774   1.00
H2       1.33831    0.47510    0.40004   1.00
C6       1.32772    0.48401    0.33901   1.00
C6       1.28849    0.51270    0.39248   1.00
C6       1.26071    0.39196    0.54903   1.00
C6       1.19225    0.41134    0.56579   1.00
H2       1.21212    0.35394    0.55614   1.00
H2       1.14051    0.39183    0.50253   1.00
C6       1.13378    0.36041    0.44922   1.00
C6       1.13393    0.33114    0.51634   1.00
H2       1.20375    0.31446    0.45700   1.00
C6       1.26336    0.33089    0.45373   1.00
C6       1.23244    0.29448    0.50881   1.00
H2       1.35346    0.38186    0.43403   1.00
H2       1.38090    0.41191    0.40230   1.00
H2       1.37917    0.36082    0.39514   1.00
H2       1.34608    0.35762    0.32604   1.00
H2       1.32178    0.40063    0.31224   1.00
H2       1.36964    0.40275    0.33039   1.00
H2       1.18672    0.44494    0.36323   1.00
H2       1.21532    0.47079    0.39655   1.00
H2       1.22352    0.47637    0.34582   1.00
H2       1.25862    0.37420    0.32651   1.00
H2       1.21308    0.39605    0.31963   1.00
H2       1.25550    0.42161    0.30563   1.00
H2       1.30514    0.47830    0.31726   1.00
H2       1.33708    0.51436    0.33565   1.00
H2       1.35332    0.46663    0.33213   1.00
H2       1.26902    0.52192    0.36901   1.00
H2       1.27068    0.50899    0.41832   1.00
H2       1.30828    0.53705    0.39835   1.00
H2       1.26688    0.42255    0.54297   1.00
H2       1.26809    0.38687    0.57965   1.00
H2       1.28048    0.37420    0.53165   1.00
H2       1.20125    0.41083    0.59641   1.00
H2       1.19574    0.44122    0.55565   1.00
H2       1.16122    0.40427    0.56551   1.00
H2       1.10202    0.36339    0.45058   1.00
H2       1.14435    0.38324    0.42963   1.00
H2       1.14035    0.33218    0.43604   1.00
H2       1.14416    0.33240    0.54646   1.00
H2       1.10212    0.33379    0.51721   1.00
H2       1.14085    0.30239    0.50444   1.00
H2       1.28656    0.34447    0.47073   1.00
H2       1.27381    0.30261    0.44337   1.00
H2       1.25834    0.34883    0.42811   1.00
H2       1.24044    0.26690    0.49487   1.00
H2       1.25622    0.30264    0.52842   1.00
H2       1.20657    0.28870    0.52638   1.00
C4       0.99719    0.22916    0.50116   1.00
C4       0.99785    0.27088    0.50145   1.00
C3       0.97724    0.20636    0.52943   1.00
C3       0.98169    0.29384    0.53194   1.00
C3       1.01802    0.20877    0.47141   1.00
C3       1.01549    0.29114    0.46962   1.00
C2       0.99885    0.14488    0.49966   1.00
C2       1.00115    0.35512    0.50034   1.00
C3       0.97822    0.16538    0.52886   1.00
C3       0.98296    0.33481    0.53124   1.00
C3       1.01804    0.16742    0.47091   1.00
C3       1.01794    0.33238    0.47029   1.00
H1       0.96131    0.21885    0.55119   1.00
H1       0.96874    0.28148    0.55566   1.00
C5       1.03856    0.22980    0.44225   1.00
C5       1.03089    0.27020    0.43745   1.00
H1       0.96348    0.15045    0.55023   1.00
H1       0.97050    0.34990    0.55392   1.00
H1       1.03221    0.15320    0.44877   1.00
H1       1.03284    0.34632    0.44853   1.00
O3       1.06377    0.21039    0.41766   1.00
O3       1.04094    0.28901    0.40321   1.00
Si1      1.11006    0.20753    0.42862   1.00
Si1      1.00712    0.29721    0.37071   1.00
C6       1.12343    0.17462    0.39131   1.00
C6       1.13064    0.25402    0.42075   1.00
C6       1.11875    0.18747    0.47528   1.00
C6       0.95874    0.28307    0.38169   1.00
C6       1.00905    0.34802    0.36448   1.00
C6       1.02252    0.27523    0.32686   1.00
C6       1.09638    0.13806    0.38630   1.00
H2       1.11895    0.19209    0.36504   1.00
C6       1.16621    0.15853    0.38823   1.00
H2       1.11081    0.26642    0.39915   1.00
C6       1.13124    0.28366    0.45547   1.00
C6       1.17226    0.25664    0.40212   1.00
H2       1.09996    0.16169    0.47510   1.00
C6       1.16099    0.17228    0.48401   1.00
C6       1.10752    0.21151    0.51270   1.00
C6       0.95097    0.23929    0.39196   1.00
C6       0.93421    0.30775    0.41134   1.00
H2       0.94386    0.28788    0.35394   1.00
H2       0.99747    0.35949    0.39183   1.00
C6       1.05078    0.36622    0.36041   1.00
C6       0.98366    0.36607    0.33114   1.00
H2       1.04300    0.29625    0.31446   1.00
C6       1.04627    0.23664    0.33089   1.00
C6       0.99119    0.26756    0.29448   1.00
H2       1.06597    0.14654    0.38186   1.00
H2       1.09770    0.11910    0.41191   1.00
H2       1.10486    0.12083    0.36082   1.00
H2       1.17396    0.15392    0.35762   1.00
H2       1.18776    0.17822    0.40063   1.00
H2       1.16961    0.13036    0.40275   1.00
H2       1.13677    0.31328    0.44494   1.00
H2       1.10345    0.28468    0.47079   1.00
H2       1.15418    0.27648    0.47637   1.00
H2       1.17349    0.24138    0.37420   1.00
H2       1.18037    0.28692    0.39605   1.00
H2       1.19437    0.24450    0.42161   1.00
H2       1.18274    0.19486    0.47830   1.00
H2       1.16435    0.16292    0.51436   1.00
H2       1.16787    0.14668    0.46663   1.00
H2       1.13099    0.23098    0.52192   1.00
H2       1.08168    0.22932    0.50899   1.00
H2       1.10165    0.19172    0.53705   1.00
H2       0.95703    0.23312    0.42255   1.00
H2       0.92035    0.23191    0.38687   1.00
H2       0.96835    0.21952    0.37420   1.00
H2       0.90359    0.29875    0.41083   1.00
H2       0.94435    0.30426    0.44122   1.00
H2       0.93449    0.33878    0.40427   1.00
H2       1.04942    0.39798    0.36339   1.00
H2       1.07037    0.35565    0.38324   1.00
H2       1.06396    0.35965    0.33218   1.00
H2       0.95354    0.35584    0.33240   1.00
H2       0.98279    0.39788    0.33379   1.00
H2       0.99556    0.35915    0.30239   1.00
H2       1.02927    0.21344    0.34447   1.00
H2       1.05663    0.22619    0.30261   1.00
H2       1.07189    0.24166    0.34883   1.00
H2       1.00513    0.25956    0.26690   1.00
H2       0.97158    0.24378    0.30264   1.00
H2       0.97362    0.29343    0.28870   1.00
C4       1.00116    0.49719    0.22916   1.00
C4       1.00145    0.49785    0.27088   1.00
C3       1.02943    0.47724    0.20636   1.00
C3       1.03194    0.48169    0.29384   1.00
C3       0.97141    0.51802    0.20877   1.00
C3       0.96962    0.51549    0.29114   1.00
C2       0.99966    0.49885    0.14488   1.00
C2       1.00034    0.50115    0.35512   1.00
C3       1.02886    0.47822    0.16538   1.00
C3       1.03124    0.48296    0.33481   1.00
C3       0.97091    0.51804    0.16742   1.00
C3       0.97029    0.51794    0.33238   1.00
H1       1.05119    0.46131    0.21885   1.00
H1       1.05566    0.46874    0.28148   1.00
C5       0.94225    0.53856    0.22980   1.00
C5       0.93745    0.53089    0.27020   1.00
H1       1.05023    0.46348    0.15045   1.00
H1       1.05392    0.47050    0.34990   1.00
H1       0.94877    0.53221    0.15320   1.00
H1       0.94853    0.53284    0.34632   1.00
O3       0.91766    0.56377    0.21039   1.00
O3       0.90321    0.54094    0.28901   1.00
Si1      0.92862    0.61006    0.20753   1.00
Si1      0.87071    0.50712    0.29721   1.00
C6       0.89131    0.62343    0.17462   1.00
C6       0.92075    0.63064    0.25402   1.00
C6       0.97528    0.61875    0.18747   1.00
C6       0.88169    0.45874    0.28307   1.00
C6       0.86448    0.50905    0.34802   1.00
C6       0.82686    0.52252    0.27523   1.00
C6       0.88630    0.59638    0.13806   1.00
H2       0.86504    0.61895    0.19209   1.00
C6       0.88823    0.66621    0.15853   1.00
H2       0.89915    0.61081    0.26642   1.00
C6       0.95547    0.63124    0.28366   1.00
C6       0.90212    0.67226    0.25664   1.00
H2       0.97510    0.59996    0.16169   1.00
C6       0.98401    0.66099    0.17228   1.00
C6       1.01270    0.60752    0.21151   1.00
C6       0.89196    0.45097    0.23929   1.00
C6       0.91134    0.43421    0.30775   1.00
H2       0.85394    0.44386    0.28788   1.00
H2       0.89183    0.49747    0.35949   1.00
C6       0.86041    0.55078    0.36622   1.00
C6       0.83114    0.48366    0.36607   1.00
H2       0.81446    0.54300    0.29625   1.00
C6       0.83089    0.54627    0.23664   1.00
C6       0.79448    0.49119    0.26756   1.00
H2       0.88186    0.56597    0.14654   1.00
H2       0.91191    0.59770    0.11910   1.00
H2       0.86082    0.60486    0.12083   1.00
H2       0.85762    0.67396    0.15392   1.00
H2       0.90063    0.68776    0.17822   1.00
H2       0.90275    0.66961    0.13036   1.00
H2       0.94494    0.63677    0.31328   1.00
H2       0.97079    0.60345    0.28468   1.00
H2       0.97637    0.65418    0.27648   1.00
H2       0.87420    0.67349    0.24138   1.00
H2       0.89605    0.68037    0.28692   1.00
H2       0.92161    0.69437    0.24450   1.00
H2       0.97830    0.68274    0.19486   1.00
H2       1.01436    0.66435    0.16292   1.00
H2       0.96663    0.66787    0.14668   1.00
H2       1.02192    0.63099    0.23098   1.00
H2       1.00899    0.58168    0.22932   1.00
H2       1.03705    0.60165    0.19172   1.00
H2       0.92255    0.45703    0.23312   1.00
H2       0.88687    0.42035    0.23191   1.00
H2       0.87420    0.46835    0.21952   1.00
H2       0.91083    0.40359    0.29875   1.00
H2       0.94122    0.44435    0.30426   1.00
H2       0.90427    0.43449    0.33878   1.00
H2       0.86339    0.54942    0.39798   1.00
H2       0.88324    0.57037    0.35565   1.00
H2       0.83218    0.56396    0.35965   1.00
H2       0.83240    0.45354    0.35584   1.00
H2       0.83379    0.48279    0.39788   1.00
H2       0.80239    0.49556    0.35915   1.00
H2       0.84447    0.52927    0.21344   1.00
H2       0.80261    0.55663    0.22619   1.00
H2       0.84883    0.57189    0.24166   1.00
H2       0.76690    0.50513    0.25956   1.00
H2       0.80264    0.47158    0.24378   1.00
H2       0.78870    0.47362    0.29343   1.00
