data_IRMOF10_SG202_interpen_Ligand11lp_label_w.

_audit_creation_method             'generated by an auxiliary program of Tobunporous'

_symmetry_space_group_name_H-M     'P 1'
_symmetry_Int_Tables_number        1
_symmetry_cell_setting             triclinic

_cell_length_a                    34.2800
_cell_length_b                    34.2800
_cell_length_c                    34.2800
_cell_angle_alpha                 90.0000
_cell_angle_beta                  90.0000
_cell_angle_gamma                 90.0000

loop_
_atom_site_label
_atom_site_fract_x
_atom_site_fract_y
_atom_site_fract_z
_atom_site_occupancy
O1       0.75000    0.75000    0.75000   1.00
Zn1      0.71720    0.78280    0.78280   1.00
Zn1      0.78280    0.71720    0.78280   1.00
Zn1      0.78280    0.78280    0.71720   1.00
Zn1      0.71720    0.71720    0.71720   1.00
O2       0.72650    0.77350    0.83820   1.00
O2       0.72650    0.83820    0.77350   1.00
O2       0.66180    0.77350    0.77350   1.00
O2       0.77350    0.72650    0.83820   1.00
O2       0.83820    0.72650    0.77350   1.00
O2       0.77350    0.66180    0.77350   1.00
O2       0.77350    0.83820    0.72650   1.00
O2       0.83820    0.77350    0.72650   1.00
O2       0.77350    0.77350    0.66180   1.00
O2       0.66180    0.72650    0.72650   1.00
O2       0.72650    0.66180    0.72650   1.00
O2       0.72650    0.72650    0.66180   1.00
C1       0.75000    0.75000    0.85520   1.00
C1       0.75000    0.85520    0.75000   1.00
C1       0.64480    0.75000    0.75000   1.00
C1       0.85520    0.75000    0.75000   1.00
C1       0.75000    0.64480    0.75000   1.00
C1       0.75000    0.75000    0.64480   1.00
O1       0.25000    0.25000    0.75000   1.00
Zn1      0.21720    0.28280    0.78280   1.00
Zn1      0.28280    0.21720    0.78280   1.00
Zn1      0.28280    0.28280    0.71720   1.00
Zn1      0.21720    0.21720    0.71720   1.00
O2       0.22650    0.27350    0.83820   1.00
O2       0.22650    0.33820    0.77350   1.00
O2       0.16180    0.27350    0.77350   1.00
O2       0.27350    0.22650    0.83820   1.00
O2       0.33820    0.22650    0.77350   1.00
O2       0.27350    0.16180    0.77350   1.00
O2       0.27350    0.33820    0.72650   1.00
O2       0.33820    0.27350    0.72650   1.00
O2       0.27350    0.27350    0.66180   1.00
O2       0.16180    0.22650    0.72650   1.00
O2       0.22650    0.16180    0.72650   1.00
O2       0.22650    0.22650    0.66180   1.00
C1       0.25000    0.25000    0.85520   1.00
C1       0.25000    0.35520    0.75000   1.00
C1       0.14480    0.25000    0.75000   1.00
C1       0.35520    0.25000    0.75000   1.00
C1       0.25000    0.14480    0.75000   1.00
C1       0.25000    0.25000    0.64480   1.00
O1       0.25000    0.75000    0.25000   1.00
Zn1      0.21720    0.78280    0.28280   1.00
Zn1      0.28280    0.71720    0.28280   1.00
Zn1      0.28280    0.78280    0.21720   1.00
Zn1      0.21720    0.71720    0.21720   1.00
O2       0.22650    0.77350    0.33820   1.00
O2       0.22650    0.83820    0.27350   1.00
O2       0.16180    0.77350    0.27350   1.00
O2       0.27350    0.72650    0.33820   1.00
O2       0.33820    0.72650    0.27350   1.00
O2       0.27350    0.66180    0.27350   1.00
O2       0.27350    0.83820    0.22650   1.00
O2       0.33820    0.77350    0.22650   1.00
O2       0.27350    0.77350    0.16180   1.00
O2       0.16180    0.72650    0.22650   1.00
O2       0.22650    0.66180    0.22650   1.00
O2       0.22650    0.72650    0.16180   1.00
C1       0.25000    0.75000    0.35520   1.00
C1       0.25000    0.85520    0.25000   1.00
C1       0.14480    0.75000    0.25000   1.00
C1       0.35520    0.75000    0.25000   1.00
C1       0.25000    0.64480    0.25000   1.00
C1       0.25000    0.75000    0.14480   1.00
O1       0.75000    0.25000    0.25000   1.00
Zn1      0.71720    0.28280    0.28280   1.00
Zn1      0.78280    0.21720    0.28280   1.00
Zn1      0.78280    0.28280    0.21720   1.00
Zn1      0.71720    0.21720    0.21720   1.00
O2       0.72650    0.27350    0.33820   1.00
O2       0.72650    0.33820    0.27350   1.00
O2       0.66180    0.27350    0.27350   1.00
O2       0.77350    0.22650    0.33820   1.00
O2       0.83820    0.22650    0.27350   1.00
O2       0.77350    0.16180    0.27350   1.00
O2       0.77350    0.33820    0.22650   1.00
O2       0.83820    0.27350    0.22650   1.00
O2       0.77350    0.27350    0.16180   1.00
O2       0.66180    0.22650    0.22650   1.00
O2       0.72650    0.16180    0.22650   1.00
O2       0.72650    0.22650    0.16180   1.00
C1       0.75000    0.25000    0.35520   1.00
C1       0.75000    0.35520    0.25000   1.00
C1       0.64480    0.25000    0.25000   1.00
C1       0.85520    0.25000    0.25000   1.00
C1       0.75000    0.14480    0.25000   1.00
C1       0.75000    0.25000    0.14480   1.00
O1       0.25000    0.25000    0.25000   1.00
Zn1      0.28280    0.21720    0.21720   1.00
Zn1      0.21720    0.28280    0.21720   1.00
Zn1      0.21720    0.21720    0.28280   1.00
Zn1      0.28280    0.28280    0.28280   1.00
O2       0.27350    0.22650    0.16180   1.00
O2       0.27350    0.16180    0.22650   1.00
O2       0.33820    0.22650    0.22650   1.00
O2       0.22650    0.27350    0.16180   1.00
O2       0.16180    0.27350    0.22650   1.00
O2       0.22650    0.33820    0.22650   1.00
O2       0.22650    0.16180    0.27350   1.00
O2       0.16180    0.22650    0.27350   1.00
O2       0.22650    0.22650    0.33820   1.00
O2       0.33820    0.27350    0.27350   1.00
O2       0.27350    0.33820    0.27350   1.00
O2       0.27350    0.27350    0.33820   1.00
C1       0.25000    0.25000    0.14480   1.00
C1       0.25000    0.14480    0.25000   1.00
C1       0.35520    0.25000    0.25000   1.00
C1       0.14480    0.25000    0.25000   1.00
C1       0.25000    0.35520    0.25000   1.00
C1       0.25000    0.25000    0.35520   1.00
O1       0.75000    0.75000    0.25000   1.00
Zn1      0.78280    0.71720    0.21720   1.00
Zn1      0.71720    0.78280    0.21720   1.00
Zn1      0.71720    0.71720    0.28280   1.00
Zn1      0.78280    0.78280    0.28280   1.00
O2       0.77350    0.72650    0.16180   1.00
O2       0.77350    0.66180    0.22650   1.00
O2       0.83820    0.72650    0.22650   1.00
O2       0.72650    0.77350    0.16180   1.00
O2       0.66180    0.77350    0.22650   1.00
O2       0.72650    0.83820    0.22650   1.00
O2       0.72650    0.66180    0.27350   1.00
O2       0.66180    0.72650    0.27350   1.00
O2       0.72650    0.72650    0.33820   1.00
O2       0.83820    0.77350    0.27350   1.00
O2       0.77350    0.83820    0.27350   1.00
O2       0.77350    0.77350    0.33820   1.00
C1       0.75000    0.75000    0.14480   1.00
C1       0.75000    0.64480    0.25000   1.00
C1       0.85520    0.75000    0.25000   1.00
C1       0.64480    0.75000    0.25000   1.00
C1       0.75000    0.85520    0.25000   1.00
C1       0.75000    0.75000    0.35520   1.00
O1       0.75000    0.25000    0.75000   1.00
Zn1      0.78280    0.21720    0.71720   1.00
Zn1      0.71720    0.28280    0.71720   1.00
Zn1      0.71720    0.21720    0.78280   1.00
Zn1      0.78280    0.28280    0.78280   1.00
O2       0.77350    0.22650    0.66180   1.00
O2       0.77350    0.16180    0.72650   1.00
O2       0.83820    0.22650    0.72650   1.00
O2       0.72650    0.27350    0.66180   1.00
O2       0.66180    0.27350    0.72650   1.00
O2       0.72650    0.33820    0.72650   1.00
O2       0.72650    0.16180    0.77350   1.00
O2       0.66180    0.22650    0.77350   1.00
O2       0.72650    0.22650    0.83820   1.00
O2       0.83820    0.27350    0.77350   1.00
O2       0.77350    0.33820    0.77350   1.00
O2       0.77350    0.27350    0.83820   1.00
C1       0.75000    0.25000    0.64480   1.00
C1       0.75000    0.14480    0.75000   1.00
C1       0.85520    0.25000    0.75000   1.00
C1       0.64480    0.25000    0.75000   1.00
C1       0.75000    0.35520    0.75000   1.00
C1       0.75000    0.25000    0.85520   1.00
O1       0.25000    0.75000    0.75000   1.00
Zn1      0.28280    0.71720    0.71720   1.00
Zn1      0.21720    0.78280    0.71720   1.00
Zn1      0.21720    0.71720    0.78280   1.00
Zn1      0.28280    0.78280    0.78280   1.00
O2       0.27350    0.72650    0.66180   1.00
O2       0.27350    0.66180    0.72650   1.00
O2       0.33820    0.72650    0.72650   1.00
O2       0.22650    0.77350    0.66180   1.00
O2       0.16180    0.77350    0.72650   1.00
O2       0.22650    0.83820    0.72650   1.00
O2       0.22650    0.66180    0.77350   1.00
O2       0.16180    0.72650    0.77350   1.00
O2       0.22650    0.72650    0.83820   1.00
O2       0.33820    0.77350    0.77350   1.00
O2       0.27350    0.83820    0.77350   1.00
O2       0.27350    0.77350    0.83820   1.00
C1       0.25000    0.75000    0.64480   1.00
C1       0.25000    0.64480    0.75000   1.00
C1       0.35520    0.75000    0.75000   1.00
C1       0.14480    0.75000    0.75000   1.00
C1       0.25000    0.85520    0.75000   1.00
C1       0.25000    0.75000    0.85520   1.00
O1       1.00000    1.00000    1.00000   1.00
Zn1      0.96720    1.03280    1.03280   1.00
Zn1      1.03280    0.96720    1.03280   1.00
Zn1      1.03280    1.03280    0.96720   1.00
Zn1      0.96720    0.96720    0.96720   1.00
O2       0.97650    1.02350    1.08820   1.00
O2       0.97650    1.08820    1.02350   1.00
O2       0.91180    1.02350    1.02350   1.00
O2       1.02350    0.97650    1.08820   1.00
O2       1.08820    0.97650    1.02350   1.00
O2       1.02350    0.91180    1.02350   1.00
O2       1.02350    1.08820    0.97650   1.00
O2       1.08820    1.02350    0.97650   1.00
O2       1.02350    1.02350    0.91180   1.00
O2       0.91180    0.97650    0.97650   1.00
O2       0.97650    0.91180    0.97650   1.00
O2       0.97650    0.97650    0.91180   1.00
C1       1.00000    1.00000    1.10520   1.00
C1       1.00000    1.10520    1.00000   1.00
C1       0.89480    1.00000    1.00000   1.00
C1       1.10520    1.00000    1.00000   1.00
C1       1.00000    0.89480    1.00000   1.00
C1       1.00000    1.00000    0.89480   1.00
O1       0.50000    0.50000    1.00000   1.00
Zn1      0.46720    0.53280    1.03280   1.00
Zn1      0.53280    0.46720    1.03280   1.00
Zn1      0.53280    0.53280    0.96720   1.00
Zn1      0.46720    0.46720    0.96720   1.00
O2       0.47650    0.52350    1.08820   1.00
O2       0.47650    0.58820    1.02350   1.00
O2       0.41180    0.52350    1.02350   1.00
O2       0.52350    0.47650    1.08820   1.00
O2       0.58820    0.47650    1.02350   1.00
O2       0.52350    0.41180    1.02350   1.00
O2       0.52350    0.58820    0.97650   1.00
O2       0.58820    0.52350    0.97650   1.00
O2       0.52350    0.52350    0.91180   1.00
O2       0.41180    0.47650    0.97650   1.00
O2       0.47650    0.41180    0.97650   1.00
O2       0.47650    0.47650    0.91180   1.00
C1       0.50000    0.50000    1.10520   1.00
C1       0.50000    0.60520    1.00000   1.00
C1       0.39480    0.50000    1.00000   1.00
C1       0.60520    0.50000    1.00000   1.00
C1       0.50000    0.39480    1.00000   1.00
C1       0.50000    0.50000    0.89480   1.00
O1       0.50000    1.00000    0.50000   1.00
Zn1      0.46720    1.03280    0.53280   1.00
Zn1      0.53280    0.96720    0.53280   1.00
Zn1      0.53280    1.03280    0.46720   1.00
Zn1      0.46720    0.96720    0.46720   1.00
O2       0.47650    1.02350    0.58820   1.00
O2       0.47650    1.08820    0.52350   1.00
O2       0.41180    1.02350    0.52350   1.00
O2       0.52350    0.97650    0.58820   1.00
O2       0.58820    0.97650    0.52350   1.00
O2       0.52350    0.91180    0.52350   1.00
O2       0.52350    1.08820    0.47650   1.00
O2       0.58820    1.02350    0.47650   1.00
O2       0.52350    1.02350    0.41180   1.00
O2       0.41180    0.97650    0.47650   1.00
O2       0.47650    0.91180    0.47650   1.00
O2       0.47650    0.97650    0.41180   1.00
C1       0.50000    1.00000    0.60520   1.00
C1       0.50000    1.10520    0.50000   1.00
C1       0.39480    1.00000    0.50000   1.00
C1       0.60520    1.00000    0.50000   1.00
C1       0.50000    0.89480    0.50000   1.00
C1       0.50000    1.00000    0.39480   1.00
O1       1.00000    0.50000    0.50000   1.00
Zn1      0.96720    0.53280    0.53280   1.00
Zn1      1.03280    0.46720    0.53280   1.00
Zn1      1.03280    0.53280    0.46720   1.00
Zn1      0.96720    0.46720    0.46720   1.00
O2       0.97650    0.52350    0.58820   1.00
O2       0.97650    0.58820    0.52350   1.00
O2       0.91180    0.52350    0.52350   1.00
O2       1.02350    0.47650    0.58820   1.00
O2       1.08820    0.47650    0.52350   1.00
O2       1.02350    0.41180    0.52350   1.00
O2       1.02350    0.58820    0.47650   1.00
O2       1.08820    0.52350    0.47650   1.00
O2       1.02350    0.52350    0.41180   1.00
O2       0.91180    0.47650    0.47650   1.00
O2       0.97650    0.41180    0.47650   1.00
O2       0.97650    0.47650    0.41180   1.00
C1       1.00000    0.50000    0.60520   1.00
C1       1.00000    0.60520    0.50000   1.00
C1       0.89480    0.50000    0.50000   1.00
C1       1.10520    0.50000    0.50000   1.00
C1       1.00000    0.39480    0.50000   1.00
C1       1.00000    0.50000    0.39480   1.00
O1       0.50000    0.50000    0.50000   1.00
Zn1      0.53280    0.46720    0.46720   1.00
Zn1      0.46720    0.53280    0.46720   1.00
Zn1      0.46720    0.46720    0.53280   1.00
Zn1      0.53280    0.53280    0.53280   1.00
O2       0.52350    0.47650    0.41180   1.00
O2       0.52350    0.41180    0.47650   1.00
O2       0.58820    0.47650    0.47650   1.00
O2       0.47650    0.52350    0.41180   1.00
O2       0.41180    0.52350    0.47650   1.00
O2       0.47650    0.58820    0.47650   1.00
O2       0.47650    0.41180    0.52350   1.00
O2       0.41180    0.47650    0.52350   1.00
O2       0.47650    0.47650    0.58820   1.00
O2       0.58820    0.52350    0.52350   1.00
O2       0.52350    0.58820    0.52350   1.00
O2       0.52350    0.52350    0.58820   1.00
C1       0.50000    0.50000    0.39480   1.00
C1       0.50000    0.39480    0.50000   1.00
C1       0.60520    0.50000    0.50000   1.00
C1       0.39480    0.50000    0.50000   1.00
C1       0.50000    0.60520    0.50000   1.00
C1       0.50000    0.50000    0.60520   1.00
O1       1.00000    1.00000    0.50000   1.00
Zn1      1.03280    0.96720    0.46720   1.00
Zn1      0.96720    1.03280    0.46720   1.00
Zn1      0.96720    0.96720    0.53280   1.00
Zn1      1.03280    1.03280    0.53280   1.00
O2       1.02350    0.97650    0.41180   1.00
O2       1.02350    0.91180    0.47650   1.00
O2       1.08820    0.97650    0.47650   1.00
O2       0.97650    1.02350    0.41180   1.00
O2       0.91180    1.02350    0.47650   1.00
O2       0.97650    1.08820    0.47650   1.00
O2       0.97650    0.91180    0.52350   1.00
O2       0.91180    0.97650    0.52350   1.00
O2       0.97650    0.97650    0.58820   1.00
O2       1.08820    1.02350    0.52350   1.00
O2       1.02350    1.08820    0.52350   1.00
O2       1.02350    1.02350    0.58820   1.00
C1       1.00000    1.00000    0.39480   1.00
C1       1.00000    0.89480    0.50000   1.00
C1       1.10520    1.00000    0.50000   1.00
C1       0.89480    1.00000    0.50000   1.00
C1       1.00000    1.10520    0.50000   1.00
C1       1.00000    1.00000    0.60520   1.00
O1       1.00000    0.50000    1.00000   1.00
Zn1      1.03280    0.46720    0.96720   1.00
Zn1      0.96720    0.53280    0.96720   1.00
Zn1      0.96720    0.46720    1.03280   1.00
Zn1      1.03280    0.53280    1.03280   1.00
O2       1.02350    0.47650    0.91180   1.00
O2       1.02350    0.41180    0.97650   1.00
O2       1.08820    0.47650    0.97650   1.00
O2       0.97650    0.52350    0.91180   1.00
O2       0.91180    0.52350    0.97650   1.00
O2       0.97650    0.58820    0.97650   1.00
O2       0.97650    0.41180    1.02350   1.00
O2       0.91180    0.47650    1.02350   1.00
O2       0.97650    0.47650    1.08820   1.00
O2       1.08820    0.52350    1.02350   1.00
O2       1.02350    0.58820    1.02350   1.00
O2       1.02350    0.52350    1.08820   1.00
C1       1.00000    0.50000    0.89480   1.00
C1       1.00000    0.39480    1.00000   1.00
C1       1.10520    0.50000    1.00000   1.00
C1       0.89480    0.50000    1.00000   1.00
C1       1.00000    0.60520    1.00000   1.00
C1       1.00000    0.50000    1.10520   1.00
O1       0.50000    1.00000    1.00000   1.00
Zn1      0.53280    0.96720    0.96720   1.00
Zn1      0.46720    1.03280    0.96720   1.00
Zn1      0.46720    0.96720    1.03280   1.00
Zn1      0.53280    1.03280    1.03280   1.00
O2       0.52350    0.97650    0.91180   1.00
O2       0.52350    0.91180    0.97650   1.00
O2       0.58820    0.97650    0.97650   1.00
O2       0.47650    1.02350    0.91180   1.00
O2       0.41180    1.02350    0.97650   1.00
O2       0.47650    1.08820    0.97650   1.00
O2       0.47650    0.91180    1.02350   1.00
O2       0.41180    0.97650    1.02350   1.00
O2       0.47650    0.97650    1.08820   1.00
O2       0.58820    1.02350    1.02350   1.00
O2       0.52350    1.08820    1.02350   1.00
O2       0.52350    1.02350    1.08820   1.00
C1       0.50000    1.00000    0.89480   1.00
C1       0.50000    0.89480    1.00000   1.00
C1       0.60520    1.00000    1.00000   1.00
C1       0.39480    1.00000    1.00000   1.00
C1       0.50000    1.10520    1.00000   1.00
C1       0.50000    1.00000    1.10520   1.00
C4       0.74988    0.75016    0.97915   1.00
C4       0.75012    0.74984    1.02085   1.00
C3a      0.71534    0.75868    0.95746   1.00
C3       0.75229    0.78490    1.04232   1.00
C3       0.78408    0.74212    0.95768   1.00
C3a      0.74830    0.71431    1.04254   1.00
C2       0.75006    0.75005    0.89488   1.00
C2       0.75007    0.75005    1.10512   1.00
C3       0.71596    0.75841    0.91595   1.00
C3       0.75215    0.78496    1.08363   1.00
C3       0.78409    0.74196    0.91637   1.00
C3       0.74823    0.71498    1.08405   1.00
C5       0.67713    0.76758    0.97772   1.00
H1       0.75371    0.81246    1.02691   1.00
H1       0.68959    0.76471    0.89979   1.00
H1       0.75363    0.81250    1.09901   1.00
H1       0.81088    0.73542    0.90099   1.00
H1       0.74664    0.68791    1.10021   1.00
C5       0.74579    0.67515    1.02228   1.00
H1       0.81087    0.73552    0.97309   1.00
H2       0.73355    0.65304    1.04256   1.00
H2       0.72520    0.67677    0.99731   1.00
H2       0.65242    0.76225    0.95744   1.00
H2       0.67273    0.74740    1.00269   1.00
N1       0.78421    0.66251    1.00857   1.00
C6       0.81484    0.65300    1.03073   1.00
C6       0.79501    0.65721    0.97154   1.00
C6       0.84578    0.64198    1.00759   1.00
C6       0.83316    0.64465    0.96995   1.00
H3       0.81497    0.65429    1.06197   1.00
H3       0.77642    0.66244    0.94700   1.00
H3       0.87432    0.63298    1.01713   1.00
H3       0.84992    0.63819    0.94425   1.00
N1       0.67612    0.80801    0.99143   1.00
C6       0.67416    0.81989    1.02846   1.00
C6       0.67586    0.84009    0.96927   1.00
C6       0.67315    0.86004    1.03005   1.00
C6       0.67424    0.87289    0.99241   1.00
H3       0.67380    0.80058    1.05300   1.00
H3       0.67712    0.83984    0.93803   1.00
H3       0.67180    0.87795    1.05575   1.00
H3       0.67386    0.90282    0.98287   1.00
C4       0.75016    0.97915    0.74988   1.00
C4       0.74984    1.02085    0.75012   1.00
C3a      0.75868    0.95746    0.71534   1.00
C3       0.78490    1.04232    0.75229   1.00
C3       0.74212    0.95768    0.78408   1.00
C3a      0.71431    1.04254    0.74830   1.00
C2       0.75005    0.89488    0.75006   1.00
C2       0.75005    1.10512    0.75007   1.00
C3       0.75841    0.91595    0.71596   1.00
C3       0.78496    1.08363    0.75215   1.00
C3       0.74196    0.91637    0.78409   1.00
C3       0.71498    1.08405    0.74823   1.00
C5       0.76758    0.97772    0.67713   1.00
H1       0.81246    1.02691    0.75371   1.00
H1       0.76471    0.89979    0.68959   1.00
H1       0.81250    1.09901    0.75363   1.00
H1       0.73542    0.90099    0.81088   1.00
H1       0.68791    1.10021    0.74664   1.00
C5       0.67515    1.02228    0.74579   1.00
H1       0.73552    0.97309    0.81087   1.00
H2       0.65304    1.04256    0.73355   1.00
H2       0.67677    0.99731    0.72520   1.00
H2       0.76225    0.95744    0.65242   1.00
H2       0.74740    1.00269    0.67273   1.00
N1       0.66251    1.00857    0.78421   1.00
C6       0.65300    1.03073    0.81484   1.00
C6       0.65721    0.97154    0.79501   1.00
C6       0.64198    1.00759    0.84578   1.00
C6       0.64465    0.96995    0.83316   1.00
H3       0.65429    1.06197    0.81497   1.00
H3       0.66244    0.94700    0.77642   1.00
H3       0.63298    1.01713    0.87432   1.00
H3       0.63819    0.94425    0.84992   1.00
N1       0.80801    0.99143    0.67612   1.00
C6       0.81989    1.02846    0.67416   1.00
C6       0.84009    0.96927    0.67586   1.00
C6       0.86004    1.03005    0.67315   1.00
C6       0.87289    0.99241    0.67424   1.00
H3       0.80058    1.05300    0.67380   1.00
H3       0.83984    0.93803    0.67712   1.00
H3       0.87795    1.05575    0.67180   1.00
H3       0.90282    0.98287    0.67386   1.00
C4       0.52085    0.74988    0.74984   1.00
C4       0.47915    0.75012    0.75016   1.00
C3a      0.54254    0.71534    0.74132   1.00
C3       0.45768    0.75229    0.71510   1.00
C3       0.54232    0.78408    0.75788   1.00
C3a      0.45746    0.74830    0.78569   1.00
C2       0.60512    0.75006    0.74995   1.00
C2       0.39488    0.75007    0.74995   1.00
C3       0.58405    0.71596    0.74159   1.00
C3       0.41637    0.75215    0.71504   1.00
C3       0.58363    0.78409    0.75804   1.00
C3       0.41595    0.74823    0.78502   1.00
C5       0.52228    0.67713    0.73242   1.00
H1       0.47309    0.75371    0.68754   1.00
H1       0.60021    0.68959    0.73529   1.00
H1       0.40099    0.75363    0.68750   1.00
H1       0.59901    0.81088    0.76458   1.00
H1       0.39979    0.74664    0.81209   1.00
C5       0.47772    0.74579    0.82485   1.00
H1       0.52691    0.81087    0.76448   1.00
H2       0.45744    0.73355    0.84696   1.00
H2       0.50269    0.72520    0.82323   1.00
H2       0.54256    0.65242    0.73775   1.00
H2       0.49731    0.67273    0.75260   1.00
N1       0.49143    0.78421    0.83749   1.00
C6       0.46927    0.81484    0.84700   1.00
C6       0.52846    0.79501    0.84279   1.00
C6       0.49241    0.84578    0.85802   1.00
C6       0.53005    0.83316    0.85535   1.00
H3       0.43803    0.81497    0.84571   1.00
H3       0.55300    0.77642    0.83756   1.00
H3       0.48287    0.87432    0.86702   1.00
H3       0.55575    0.84992    0.86181   1.00
N1       0.50857    0.67612    0.69199   1.00
C6       0.47154    0.67416    0.68011   1.00
C6       0.53073    0.67586    0.65991   1.00
C6       0.46995    0.67315    0.63996   1.00
C6       0.50759    0.67424    0.62711   1.00
H3       0.44700    0.67380    0.69942   1.00
H3       0.56197    0.67712    0.66016   1.00
H3       0.44425    0.67180    0.62205   1.00
H3       0.51713    0.67386    0.59718   1.00
C4       0.97915    0.74988    0.75016   1.00
C4       1.02085    0.75012    0.74984   1.00
C3a      0.95746    0.71534    0.75868   1.00
C3       1.04232    0.75229    0.78490   1.00
C3       0.95768    0.78408    0.74212   1.00
C3a      1.04254    0.74830    0.71431   1.00
C2       0.89488    0.75006    0.75005   1.00
C2       1.10512    0.75007    0.75005   1.00
C3       0.91595    0.71596    0.75841   1.00
C3       1.08363    0.75215    0.78496   1.00
C3       0.91637    0.78409    0.74196   1.00
C3       1.08405    0.74823    0.71498   1.00
C5       0.97772    0.67713    0.76758   1.00
H1       1.02691    0.75371    0.81246   1.00
H1       0.89979    0.68959    0.76471   1.00
H1       1.09901    0.75363    0.81250   1.00
H1       0.90099    0.81088    0.73542   1.00
H1       1.10021    0.74664    0.68791   1.00
C5       1.02228    0.74579    0.67515   1.00
H1       0.97309    0.81087    0.73552   1.00
H2       1.04256    0.73355    0.65304   1.00
H2       0.99731    0.72520    0.67677   1.00
H2       0.95744    0.65242    0.76225   1.00
H2       1.00269    0.67273    0.74740   1.00
N1       1.00857    0.78421    0.66251   1.00
C6       1.03073    0.81484    0.65300   1.00
C6       0.97154    0.79501    0.65721   1.00
C6       1.00759    0.84578    0.64198   1.00
C6       0.96995    0.83316    0.64465   1.00
H3       1.06197    0.81497    0.65429   1.00
H3       0.94700    0.77642    0.66244   1.00
H3       1.01713    0.87432    0.63298   1.00
H3       0.94425    0.84992    0.63819   1.00
N1       0.99143    0.67612    0.80801   1.00
C6       1.02846    0.67416    0.81989   1.00
C6       0.96927    0.67586    0.84009   1.00
C6       1.03005    0.67315    0.86004   1.00
C6       0.99241    0.67424    0.87289   1.00
H3       1.05300    0.67380    0.80058   1.00
H3       0.93803    0.67712    0.83984   1.00
H3       1.05575    0.67180    0.87795   1.00
H3       0.98287    0.67386    0.90282   1.00
C4       0.74984    0.52085    0.74988   1.00
C4       0.75016    0.47915    0.75012   1.00
C3a      0.74132    0.54254    0.71534   1.00
C3       0.71510    0.45768    0.75229   1.00
C3       0.75788    0.54232    0.78408   1.00
C3a      0.78569    0.45746    0.74830   1.00
C2       0.74995    0.60512    0.75006   1.00
C2       0.74995    0.39488    0.75007   1.00
C3       0.74159    0.58405    0.71596   1.00
C3       0.71504    0.41637    0.75215   1.00
C3       0.75804    0.58363    0.78409   1.00
C3       0.78502    0.41595    0.74823   1.00
C5       0.73242    0.52228    0.67713   1.00
H1       0.68754    0.47309    0.75371   1.00
H1       0.73529    0.60021    0.68959   1.00
H1       0.68750    0.40099    0.75363   1.00
H1       0.76458    0.59901    0.81088   1.00
H1       0.81209    0.39979    0.74664   1.00
C5       0.82485    0.47772    0.74579   1.00
H1       0.76448    0.52691    0.81087   1.00
H2       0.84696    0.45744    0.73355   1.00
H2       0.82323    0.50269    0.72520   1.00
H2       0.73775    0.54256    0.65242   1.00
H2       0.75260    0.49731    0.67273   1.00
N1       0.83749    0.49143    0.78421   1.00
C6       0.84700    0.46927    0.81484   1.00
C6       0.84279    0.52846    0.79501   1.00
C6       0.85802    0.49241    0.84578   1.00
C6       0.85535    0.53005    0.83316   1.00
H3       0.84571    0.43803    0.81497   1.00
H3       0.83756    0.55300    0.77642   1.00
H3       0.86702    0.48287    0.87432   1.00
H3       0.86181    0.55575    0.84992   1.00
N1       0.69199    0.50857    0.67612   1.00
C6       0.68011    0.47154    0.67416   1.00
C6       0.65991    0.53073    0.67586   1.00
C6       0.63996    0.46995    0.67315   1.00
C6       0.62711    0.50759    0.67424   1.00
H3       0.69942    0.44700    0.67380   1.00
H3       0.66016    0.56197    0.67712   1.00
H3       0.62205    0.44425    0.67180   1.00
H3       0.59718    0.51713    0.67386   1.00
C4       0.74988    0.74984    0.52085   1.00
C4       0.75012    0.75016    0.47915   1.00
C3a      0.71534    0.74132    0.54254   1.00
C3       0.75229    0.71510    0.45768   1.00
C3       0.78408    0.75788    0.54232   1.00
C3a      0.74830    0.78569    0.45746   1.00
C2       0.75006    0.74995    0.60512   1.00
C2       0.75007    0.74995    0.39488   1.00
C3       0.71596    0.74159    0.58405   1.00
C3       0.75215    0.71504    0.41637   1.00
C3       0.78409    0.75804    0.58363   1.00
C3       0.74823    0.78502    0.41595   1.00
C5       0.67713    0.73242    0.52228   1.00
H1       0.75371    0.68754    0.47309   1.00
H1       0.68959    0.73529    0.60021   1.00
H1       0.75363    0.68750    0.40099   1.00
H1       0.81088    0.76458    0.59901   1.00
H1       0.74664    0.81209    0.39979   1.00
C5       0.74579    0.82485    0.47772   1.00
H1       0.81087    0.76448    0.52691   1.00
H2       0.73355    0.84696    0.45744   1.00
H2       0.72520    0.82323    0.50269   1.00
H2       0.65242    0.73775    0.54256   1.00
H2       0.67273    0.75260    0.49731   1.00
N1       0.78421    0.83749    0.49143   1.00
C6       0.81484    0.84700    0.46927   1.00
C6       0.79501    0.84279    0.52846   1.00
C6       0.84578    0.85802    0.49241   1.00
C6       0.83316    0.85535    0.53005   1.00
H3       0.81497    0.84571    0.43803   1.00
H3       0.77642    0.83756    0.55300   1.00
H3       0.87432    0.86702    0.48287   1.00
H3       0.84992    0.86181    0.55575   1.00
N1       0.67612    0.69199    0.50857   1.00
C6       0.67416    0.68011    0.47154   1.00
C6       0.67586    0.65991    0.53073   1.00
C6       0.67315    0.63996    0.46995   1.00
C6       0.67424    0.62711    0.50759   1.00
H3       0.67380    0.69942    0.44700   1.00
H3       0.67712    0.66016    0.56197   1.00
H3       0.67180    0.62205    0.44425   1.00
H3       0.67386    0.59718    0.51713   1.00
C4       0.24988    0.25016    0.97915   1.00
C4       0.25012    0.24984    1.02085   1.00
C3a      0.21534    0.25868    0.95746   1.00
C3       0.25229    0.28490    1.04232   1.00
C3       0.28408    0.24212    0.95768   1.00
C3a      0.24830    0.21431    1.04254   1.00
C2       0.25006    0.25005    0.89488   1.00
C2       0.25007    0.25005    1.10512   1.00
C3       0.21596    0.25841    0.91595   1.00
C3       0.25215    0.28496    1.08363   1.00
C3       0.28409    0.24196    0.91637   1.00
C3       0.24823    0.21498    1.08405   1.00
C5       0.17713    0.26758    0.97772   1.00
H1       0.25371    0.31246    1.02691   1.00
H1       0.18959    0.26471    0.89979   1.00
H1       0.25363    0.31250    1.09901   1.00
H1       0.31088    0.23542    0.90099   1.00
H1       0.24664    0.18791    1.10021   1.00
C5       0.24579    0.17515    1.02228   1.00
H1       0.31087    0.23552    0.97309   1.00
H2       0.23355    0.15304    1.04256   1.00
H2       0.22520    0.17677    0.99731   1.00
H2       0.15242    0.26225    0.95744   1.00
H2       0.17273    0.24740    1.00269   1.00
N1       0.28421    0.16251    1.00857   1.00
C6       0.31484    0.15300    1.03073   1.00
C6       0.29501    0.15721    0.97154   1.00
C6       0.34578    0.14198    1.00759   1.00
C6       0.33316    0.14465    0.96995   1.00
H3       0.31497    0.15429    1.06197   1.00
H3       0.27642    0.16244    0.94700   1.00
H3       0.37432    0.13298    1.01713   1.00
H3       0.34992    0.13819    0.94425   1.00
N1       0.17612    0.30801    0.99143   1.00
C6       0.17416    0.31989    1.02846   1.00
C6       0.17586    0.34009    0.96927   1.00
C6       0.17315    0.36004    1.03005   1.00
C6       0.17424    0.37289    0.99241   1.00
H3       0.17380    0.30058    1.05300   1.00
H3       0.17712    0.33984    0.93803   1.00
H3       0.17180    0.37795    1.05575   1.00
H3       0.17386    0.40282    0.98287   1.00
C4       0.25016    0.47915    0.74988   1.00
C4       0.24984    0.52085    0.75012   1.00
C3a      0.25868    0.45746    0.71534   1.00
C3       0.28490    0.54232    0.75229   1.00
C3       0.24212    0.45768    0.78408   1.00
C3a      0.21431    0.54254    0.74830   1.00
C2       0.25005    0.39488    0.75006   1.00
C2       0.25005    0.60512    0.75007   1.00
C3       0.25841    0.41595    0.71596   1.00
C3       0.28496    0.58363    0.75215   1.00
C3       0.24196    0.41637    0.78409   1.00
C3       0.21498    0.58405    0.74823   1.00
C5       0.26758    0.47772    0.67713   1.00
H1       0.31246    0.52691    0.75371   1.00
H1       0.26471    0.39979    0.68959   1.00
H1       0.31250    0.59901    0.75363   1.00
H1       0.23542    0.40099    0.81088   1.00
H1       0.18791    0.60021    0.74664   1.00
C5       0.17515    0.52228    0.74579   1.00
H1       0.23552    0.47309    0.81087   1.00
H2       0.15304    0.54256    0.73355   1.00
H2       0.17677    0.49731    0.72520   1.00
H2       0.26225    0.45744    0.65242   1.00
H2       0.24740    0.50269    0.67273   1.00
N1       0.16251    0.50857    0.78421   1.00
C6       0.15300    0.53073    0.81484   1.00
C6       0.15721    0.47154    0.79501   1.00
C6       0.14198    0.50759    0.84578   1.00
C6       0.14465    0.46995    0.83316   1.00
H3       0.15429    0.56197    0.81497   1.00
H3       0.16244    0.44700    0.77642   1.00
H3       0.13298    0.51713    0.87432   1.00
H3       0.13819    0.44425    0.84992   1.00
N1       0.30801    0.49143    0.67612   1.00
C6       0.31989    0.52846    0.67416   1.00
C6       0.34009    0.46927    0.67586   1.00
C6       0.36004    0.53005    0.67315   1.00
C6       0.37289    0.49241    0.67424   1.00
H3       0.30058    0.55300    0.67380   1.00
H3       0.33984    0.43803    0.67712   1.00
H3       0.37795    0.55575    0.67180   1.00
H3       0.40282    0.48287    0.67386   1.00
C4       0.02085    0.24988    0.74984   1.00
C4       -0.02085   0.25012    0.75016   1.00
C3a      0.04254    0.21534    0.74132   1.00
C3       -0.04232   0.25229    0.71510   1.00
C3       0.04232    0.28408    0.75788   1.00
C3a      -0.04254   0.24830    0.78569   1.00
C2       0.10512    0.25006    0.74995   1.00
C2       -0.10512   0.25007    0.74995   1.00
C3       0.08405    0.21596    0.74159   1.00
C3       -0.08363   0.25215    0.71504   1.00
C3       0.08363    0.28409    0.75804   1.00
C3       -0.08405   0.24823    0.78502   1.00
C5       0.02228    0.17713    0.73242   1.00
H1       -0.02691   0.25371    0.68754   1.00
H1       0.10021    0.18959    0.73529   1.00
H1       -0.09901   0.25363    0.68750   1.00
H1       0.09901    0.31088    0.76458   1.00
H1       -0.10021   0.24664    0.81209   1.00
C5       -0.02228   0.24579    0.82485   1.00
H1       0.02691    0.31087    0.76448   1.00
H2       -0.04256   0.23355    0.84696   1.00
H2       0.00269    0.22520    0.82323   1.00
H2       0.04256    0.15242    0.73775   1.00
H2       -0.00269   0.17273    0.75260   1.00
N1       -0.00857   0.28421    0.83749   1.00
C6       -0.03073   0.31484    0.84700   1.00
C6       0.02846    0.29501    0.84279   1.00
C6       -0.00759   0.34578    0.85802   1.00
C6       0.03005    0.33316    0.85535   1.00
H3       -0.06197   0.31497    0.84571   1.00
H3       0.05300    0.27642    0.83756   1.00
H3       -0.01713   0.37432    0.86702   1.00
H3       0.05575    0.34992    0.86181   1.00
N1       0.00857    0.17612    0.69199   1.00
C6       -0.02846   0.17416    0.68011   1.00
C6       0.03073    0.17586    0.65991   1.00
C6       -0.03005   0.17315    0.63996   1.00
C6       0.00759    0.17424    0.62711   1.00
H3       -0.05300   0.17380    0.69942   1.00
H3       0.06197    0.17712    0.66016   1.00
H3       -0.05575   0.17180    0.62205   1.00
H3       0.01713    0.17386    0.59718   1.00
C4       0.47915    0.24988    0.75016   1.00
C4       0.52085    0.25012    0.74984   1.00
C3a      0.45746    0.21534    0.75868   1.00
C3       0.54232    0.25229    0.78490   1.00
C3       0.45768    0.28408    0.74212   1.00
C3a      0.54254    0.24830    0.71431   1.00
C2       0.39488    0.25006    0.75005   1.00
C2       0.60512    0.25007    0.75005   1.00
C3       0.41595    0.21596    0.75841   1.00
C3       0.58363    0.25215    0.78496   1.00
C3       0.41637    0.28409    0.74196   1.00
C3       0.58405    0.24823    0.71498   1.00
C5       0.47772    0.17713    0.76758   1.00
H1       0.52691    0.25371    0.81246   1.00
H1       0.39979    0.18959    0.76471   1.00
H1       0.59901    0.25363    0.81250   1.00
H1       0.40099    0.31088    0.73542   1.00
H1       0.60021    0.24664    0.68791   1.00
C5       0.52228    0.24579    0.67515   1.00
H1       0.47309    0.31087    0.73552   1.00
H2       0.54256    0.23355    0.65304   1.00
H2       0.49731    0.22520    0.67677   1.00
H2       0.45744    0.15242    0.76225   1.00
H2       0.50269    0.17273    0.74740   1.00
N1       0.50857    0.28421    0.66251   1.00
C6       0.53073    0.31484    0.65300   1.00
C6       0.47154    0.29501    0.65721   1.00
C6       0.50759    0.34578    0.64198   1.00
C6       0.46995    0.33316    0.64465   1.00
H3       0.56197    0.31497    0.65429   1.00
H3       0.44700    0.27642    0.66244   1.00
H3       0.51713    0.37432    0.63298   1.00
H3       0.44425    0.34992    0.63819   1.00
N1       0.49143    0.17612    0.80801   1.00
C6       0.52846    0.17416    0.81989   1.00
C6       0.46927    0.17586    0.84009   1.00
C6       0.53005    0.17315    0.86004   1.00
C6       0.49241    0.17424    0.87289   1.00
H3       0.55300    0.17380    0.80058   1.00
H3       0.43803    0.17712    0.83984   1.00
H3       0.55575    0.17180    0.87795   1.00
H3       0.48287    0.17386    0.90282   1.00
C4       0.24984    0.02085    0.74988   1.00
C4       0.25016    -0.02085   0.75012   1.00
C3a      0.24132    0.04254    0.71534   1.00
C3       0.21510    -0.04232   0.75229   1.00
C3       0.25788    0.04232    0.78408   1.00
C3a      0.28569    -0.04254   0.74830   1.00
C2       0.24995    0.10512    0.75006   1.00
C2       0.24995    -0.10512   0.75007   1.00
C3       0.24159    0.08405    0.71596   1.00
C3       0.21504    -0.08363   0.75215   1.00
C3       0.25804    0.08363    0.78409   1.00
C3       0.28502    -0.08405   0.74823   1.00
C5       0.23242    0.02228    0.67713   1.00
H1       0.18754    -0.02691   0.75371   1.00
H1       0.23529    0.10021    0.68959   1.00
H1       0.18750    -0.09901   0.75363   1.00
H1       0.26458    0.09901    0.81088   1.00
H1       0.31209    -0.10021   0.74664   1.00
C5       0.32485    -0.02228   0.74579   1.00
H1       0.26448    0.02691    0.81087   1.00
H2       0.34696    -0.04256   0.73355   1.00
H2       0.32323    0.00269    0.72520   1.00
H2       0.23775    0.04256    0.65242   1.00
H2       0.25260    -0.00269   0.67273   1.00
N1       0.33749    -0.00857   0.78421   1.00
C6       0.34700    -0.03073   0.81484   1.00
C6       0.34279    0.02846    0.79501   1.00
C6       0.35802    -0.00759   0.84578   1.00
C6       0.35535    0.03005    0.83316   1.00
H3       0.34571    -0.06197   0.81497   1.00
H3       0.33756    0.05300    0.77642   1.00
H3       0.36702    -0.01713   0.87432   1.00
H3       0.36181    0.05575    0.84992   1.00
N1       0.19199    0.00857    0.67612   1.00
C6       0.18011    -0.02846   0.67416   1.00
C6       0.15991    0.03073    0.67586   1.00
C6       0.13996    -0.03005   0.67315   1.00
C6       0.12711    0.00759    0.67424   1.00
H3       0.19942    -0.05300   0.67380   1.00
H3       0.16016    0.06197    0.67712   1.00
H3       0.12205    -0.05575   0.67180   1.00
H3       0.09718    0.01713    0.67386   1.00
C4       0.24988    0.24984    0.52085   1.00
C4       0.25012    0.25016    0.47915   1.00
C3a      0.21534    0.24132    0.54254   1.00
C3       0.25229    0.21510    0.45768   1.00
C3       0.28408    0.25788    0.54232   1.00
C3a      0.24830    0.28569    0.45746   1.00
C2       0.25006    0.24995    0.60512   1.00
C2       0.25007    0.24995    0.39488   1.00
C3       0.21596    0.24159    0.58405   1.00
C3       0.25215    0.21504    0.41637   1.00
C3       0.28409    0.25804    0.58363   1.00
C3       0.24823    0.28502    0.41595   1.00
C5       0.17713    0.23242    0.52228   1.00
H1       0.25371    0.18754    0.47309   1.00
H1       0.18959    0.23529    0.60021   1.00
H1       0.25363    0.18750    0.40099   1.00
H1       0.31088    0.26458    0.59901   1.00
H1       0.24664    0.31209    0.39979   1.00
C5       0.24579    0.32485    0.47772   1.00
H1       0.31087    0.26448    0.52691   1.00
H2       0.23355    0.34696    0.45744   1.00
H2       0.22520    0.32323    0.50269   1.00
H2       0.15242    0.23775    0.54256   1.00
H2       0.17273    0.25260    0.49731   1.00
N1       0.28421    0.33749    0.49143   1.00
C6       0.31484    0.34700    0.46927   1.00
C6       0.29501    0.34279    0.52846   1.00
C6       0.34578    0.35802    0.49241   1.00
C6       0.33316    0.35535    0.53005   1.00
H3       0.31497    0.34571    0.43803   1.00
H3       0.27642    0.33756    0.55300   1.00
H3       0.37432    0.36702    0.48287   1.00
H3       0.34992    0.36181    0.55575   1.00
N1       0.17612    0.19199    0.50857   1.00
C6       0.17416    0.18011    0.47154   1.00
C6       0.17586    0.15991    0.53073   1.00
C6       0.17315    0.13996    0.46995   1.00
C6       0.17424    0.12711    0.50759   1.00
H3       0.17380    0.19942    0.44700   1.00
H3       0.17712    0.16016    0.56197   1.00
H3       0.17180    0.12205    0.44425   1.00
H3       0.17386    0.09718    0.51713   1.00
C4       0.24988    0.75016    0.47915   1.00
C4       0.25012    0.74984    0.52085   1.00
C3a      0.21534    0.75868    0.45746   1.00
C3       0.25229    0.78490    0.54232   1.00
C3       0.28408    0.74212    0.45768   1.00
C3a      0.24830    0.71431    0.54254   1.00
C2       0.25006    0.75005    0.39488   1.00
C2       0.25007    0.75005    0.60512   1.00
C3       0.21596    0.75841    0.41595   1.00
C3       0.25215    0.78496    0.58363   1.00
C3       0.28409    0.74196    0.41637   1.00
C3       0.24823    0.71498    0.58405   1.00
C5       0.17713    0.76758    0.47772   1.00
H1       0.25371    0.81246    0.52691   1.00
H1       0.18959    0.76471    0.39979   1.00
H1       0.25363    0.81250    0.59901   1.00
H1       0.31088    0.73542    0.40099   1.00
H1       0.24664    0.68791    0.60021   1.00
C5       0.24579    0.67515    0.52228   1.00
H1       0.31087    0.73552    0.47309   1.00
H2       0.23355    0.65304    0.54256   1.00
H2       0.22520    0.67677    0.49731   1.00
H2       0.15242    0.76225    0.45744   1.00
H2       0.17273    0.74740    0.50269   1.00
N1       0.28421    0.66251    0.50857   1.00
C6       0.31484    0.65300    0.53073   1.00
C6       0.29501    0.65721    0.47154   1.00
C6       0.34578    0.64198    0.50759   1.00
C6       0.33316    0.64465    0.46995   1.00
H3       0.31497    0.65429    0.56197   1.00
H3       0.27642    0.66244    0.44700   1.00
H3       0.37432    0.63298    0.51713   1.00
H3       0.34992    0.63819    0.44425   1.00
N1       0.17612    0.80801    0.49143   1.00
C6       0.17416    0.81989    0.52846   1.00
C6       0.17586    0.84009    0.46927   1.00
C6       0.17315    0.86004    0.53005   1.00
C6       0.17424    0.87289    0.49241   1.00
H3       0.17380    0.80058    0.55300   1.00
H3       0.17712    0.83984    0.43803   1.00
H3       0.17180    0.87795    0.55575   1.00
H3       0.17386    0.90282    0.48287   1.00
C4       0.25016    0.97915    0.24988   1.00
C4       0.24984    1.02085    0.25012   1.00
C3a      0.25868    0.95746    0.21534   1.00
C3       0.28490    1.04232    0.25229   1.00
C3       0.24212    0.95768    0.28408   1.00
C3a      0.21431    1.04254    0.24830   1.00
C2       0.25005    0.89488    0.25006   1.00
C2       0.25005    1.10512    0.25007   1.00
C3       0.25841    0.91595    0.21596   1.00
C3       0.28496    1.08363    0.25215   1.00
C3       0.24196    0.91637    0.28409   1.00
C3       0.21498    1.08405    0.24823   1.00
C5       0.26758    0.97772    0.17713   1.00
H1       0.31246    1.02691    0.25371   1.00
H1       0.26471    0.89979    0.18959   1.00
H1       0.31250    1.09901    0.25363   1.00
H1       0.23542    0.90099    0.31088   1.00
H1       0.18791    1.10021    0.24664   1.00
C5       0.17515    1.02228    0.24579   1.00
H1       0.23552    0.97309    0.31087   1.00
H2       0.15304    1.04256    0.23355   1.00
H2       0.17677    0.99731    0.22520   1.00
H2       0.26225    0.95744    0.15242   1.00
H2       0.24740    1.00269    0.17273   1.00
N1       0.16251    1.00857    0.28421   1.00
C6       0.15300    1.03073    0.31484   1.00
C6       0.15721    0.97154    0.29501   1.00
C6       0.14198    1.00759    0.34578   1.00
C6       0.14465    0.96995    0.33316   1.00
H3       0.15429    1.06197    0.31497   1.00
H3       0.16244    0.94700    0.27642   1.00
H3       0.13298    1.01713    0.37432   1.00
H3       0.13819    0.94425    0.34992   1.00
N1       0.30801    0.99143    0.17612   1.00
C6       0.31989    1.02846    0.17416   1.00
C6       0.34009    0.96927    0.17586   1.00
C6       0.36004    1.03005    0.17315   1.00
C6       0.37289    0.99241    0.17424   1.00
H3       0.30058    1.05300    0.17380   1.00
H3       0.33984    0.93803    0.17712   1.00
H3       0.37795    1.05575    0.17180   1.00
H3       0.40282    0.98287    0.17386   1.00
C4       0.02085    0.74988    0.24984   1.00
C4       -0.02085   0.75012    0.25016   1.00
C3a      0.04254    0.71534    0.24132   1.00
C3       -0.04232   0.75229    0.21510   1.00
C3       0.04232    0.78408    0.25788   1.00
C3a      -0.04254   0.74830    0.28569   1.00
C2       0.10512    0.75006    0.24995   1.00
C2       -0.10512   0.75007    0.24995   1.00
C3       0.08405    0.71596    0.24159   1.00
C3       -0.08363   0.75215    0.21504   1.00
C3       0.08363    0.78409    0.25804   1.00
C3       -0.08405   0.74823    0.28502   1.00
C5       0.02228    0.67713    0.23242   1.00
H1       -0.02691   0.75371    0.18754   1.00
H1       0.10021    0.68959    0.23529   1.00
H1       -0.09901   0.75363    0.18750   1.00
H1       0.09901    0.81088    0.26458   1.00
H1       -0.10021   0.74664    0.31209   1.00
C5       -0.02228   0.74579    0.32485   1.00
H1       0.02691    0.81087    0.26448   1.00
H2       -0.04256   0.73355    0.34696   1.00
H2       0.00269    0.72520    0.32323   1.00
H2       0.04256    0.65242    0.23775   1.00
H2       -0.00269   0.67273    0.25260   1.00
N1       -0.00857   0.78421    0.33749   1.00
C6       -0.03073   0.81484    0.34700   1.00
C6       0.02846    0.79501    0.34279   1.00
C6       -0.00759   0.84578    0.35802   1.00
C6       0.03005    0.83316    0.35535   1.00
H3       -0.06197   0.81497    0.34571   1.00
H3       0.05300    0.77642    0.33756   1.00
H3       -0.01713   0.87432    0.36702   1.00
H3       0.05575    0.84992    0.36181   1.00
N1       0.00857    0.67612    0.19199   1.00
C6       -0.02846   0.67416    0.18011   1.00
C6       0.03073    0.67586    0.15991   1.00
C6       -0.03005   0.67315    0.13996   1.00
C6       0.00759    0.67424    0.12711   1.00
H3       -0.05300   0.67380    0.19942   1.00
H3       0.06197    0.67712    0.16016   1.00
H3       -0.05575   0.67180    0.12205   1.00
H3       0.01713    0.67386    0.09718   1.00
C4       0.47915    0.74988    0.25016   1.00
C4       0.52085    0.75012    0.24984   1.00
C3a      0.45746    0.71534    0.25868   1.00
C3       0.54232    0.75229    0.28490   1.00
C3       0.45768    0.78408    0.24212   1.00
C3a      0.54254    0.74830    0.21431   1.00
C2       0.39488    0.75006    0.25005   1.00
C2       0.60512    0.75007    0.25005   1.00
C3       0.41595    0.71596    0.25841   1.00
C3       0.58363    0.75215    0.28496   1.00
C3       0.41637    0.78409    0.24196   1.00
C3       0.58405    0.74823    0.21498   1.00
C5       0.47772    0.67713    0.26758   1.00
H1       0.52691    0.75371    0.31246   1.00
H1       0.39979    0.68959    0.26471   1.00
H1       0.59901    0.75363    0.31250   1.00
H1       0.40099    0.81088    0.23542   1.00
H1       0.60021    0.74664    0.18791   1.00
C5       0.52228    0.74579    0.17515   1.00
H1       0.47309    0.81087    0.23552   1.00
H2       0.54256    0.73355    0.15304   1.00
H2       0.49731    0.72520    0.17677   1.00
H2       0.45744    0.65242    0.26225   1.00
H2       0.50269    0.67273    0.24740   1.00
N1       0.50857    0.78421    0.16251   1.00
C6       0.53073    0.81484    0.15300   1.00
C6       0.47154    0.79501    0.15721   1.00
C6       0.50759    0.84578    0.14198   1.00
C6       0.46995    0.83316    0.14465   1.00
H3       0.56197    0.81497    0.15429   1.00
H3       0.44700    0.77642    0.16244   1.00
H3       0.51713    0.87432    0.13298   1.00
H3       0.44425    0.84992    0.13819   1.00
N1       0.49143    0.67612    0.30801   1.00
C6       0.52846    0.67416    0.31989   1.00
C6       0.46927    0.67586    0.34009   1.00
C6       0.53005    0.67315    0.36004   1.00
C6       0.49241    0.67424    0.37289   1.00
H3       0.55300    0.67380    0.30058   1.00
H3       0.43803    0.67712    0.33984   1.00
H3       0.55575    0.67180    0.37795   1.00
H3       0.48287    0.67386    0.40282   1.00
C4       0.24984    0.52085    0.24988   1.00
C4       0.25016    0.47915    0.25012   1.00
C3a      0.24132    0.54254    0.21534   1.00
C3       0.21510    0.45768    0.25229   1.00
C3       0.25788    0.54232    0.28408   1.00
C3a      0.28569    0.45746    0.24830   1.00
C2       0.24995    0.60512    0.25006   1.00
C2       0.24995    0.39488    0.25007   1.00
C3       0.24159    0.58405    0.21596   1.00
C3       0.21504    0.41637    0.25215   1.00
C3       0.25804    0.58363    0.28409   1.00
C3       0.28502    0.41595    0.24823   1.00
C5       0.23242    0.52228    0.17713   1.00
H1       0.18754    0.47309    0.25371   1.00
H1       0.23529    0.60021    0.18959   1.00
H1       0.18750    0.40099    0.25363   1.00
H1       0.26458    0.59901    0.31088   1.00
H1       0.31209    0.39979    0.24664   1.00
C5       0.32485    0.47772    0.24579   1.00
H1       0.26448    0.52691    0.31087   1.00
H2       0.34696    0.45744    0.23355   1.00
H2       0.32323    0.50269    0.22520   1.00
H2       0.23775    0.54256    0.15242   1.00
H2       0.25260    0.49731    0.17273   1.00
N1       0.33749    0.49143    0.28421   1.00
C6       0.34700    0.46927    0.31484   1.00
C6       0.34279    0.52846    0.29501   1.00
C6       0.35802    0.49241    0.34578   1.00
C6       0.35535    0.53005    0.33316   1.00
H3       0.34571    0.43803    0.31497   1.00
H3       0.33756    0.55300    0.27642   1.00
H3       0.36702    0.48287    0.37432   1.00
H3       0.36181    0.55575    0.34992   1.00
N1       0.19199    0.50857    0.17612   1.00
C6       0.18011    0.47154    0.17416   1.00
C6       0.15991    0.53073    0.17586   1.00
C6       0.13996    0.46995    0.17315   1.00
C6       0.12711    0.50759    0.17424   1.00
H3       0.19942    0.44700    0.17380   1.00
H3       0.16016    0.56197    0.17712   1.00
H3       0.12205    0.44425    0.17180   1.00
H3       0.09718    0.51713    0.17386   1.00
C4       0.24988    0.74984    0.02085   1.00
C4       0.25012    0.75016    -0.02085   1.00
C3a      0.21534    0.74132    0.04254   1.00
C3       0.25229    0.71510    -0.04232   1.00
C3       0.28408    0.75788    0.04232   1.00
C3a      0.24830    0.78569    -0.04254   1.00
C2       0.25006    0.74995    0.10512   1.00
C2       0.25007    0.74995    -0.10512   1.00
C3       0.21596    0.74159    0.08405   1.00
C3       0.25215    0.71504    -0.08363   1.00
C3       0.28409    0.75804    0.08363   1.00
C3       0.24823    0.78502    -0.08405   1.00
C5       0.17713    0.73242    0.02228   1.00
H1       0.25371    0.68754    -0.02691   1.00
H1       0.18959    0.73529    0.10021   1.00
H1       0.25363    0.68750    -0.09901   1.00
H1       0.31088    0.76458    0.09901   1.00
H1       0.24664    0.81209    -0.10021   1.00
C5       0.24579    0.82485    -0.02228   1.00
H1       0.31087    0.76448    0.02691   1.00
H2       0.23355    0.84696    -0.04256   1.00
H2       0.22520    0.82323    0.00269   1.00
H2       0.15242    0.73775    0.04256   1.00
H2       0.17273    0.75260    -0.00269   1.00
N1       0.28421    0.83749    -0.00857   1.00
C6       0.31484    0.84700    -0.03073   1.00
C6       0.29501    0.84279    0.02846   1.00
C6       0.34578    0.85802    -0.00759   1.00
C6       0.33316    0.85535    0.03005   1.00
H3       0.31497    0.84571    -0.06197   1.00
H3       0.27642    0.83756    0.05300   1.00
H3       0.37432    0.86702    -0.01713   1.00
H3       0.34992    0.86181    0.05575   1.00
N1       0.17612    0.69199    0.00857   1.00
C6       0.17416    0.68011    -0.02846   1.00
C6       0.17586    0.65991    0.03073   1.00
C6       0.17315    0.63996    -0.03005   1.00
C6       0.17424    0.62711    0.00759   1.00
H3       0.17380    0.69942    -0.05300   1.00
H3       0.17712    0.66016    0.06197   1.00
H3       0.17180    0.62205    -0.05575   1.00
H3       0.17386    0.59718    0.01713   1.00
C4       0.74988    0.25016    0.47915   1.00
C4       0.75012    0.24984    0.52085   1.00
C3a      0.71534    0.25868    0.45746   1.00
C3       0.75229    0.28490    0.54232   1.00
C3       0.78408    0.24212    0.45768   1.00
C3a      0.74830    0.21431    0.54254   1.00
C2       0.75006    0.25005    0.39488   1.00
C2       0.75007    0.25005    0.60512   1.00
C3       0.71596    0.25841    0.41595   1.00
C3       0.75215    0.28496    0.58363   1.00
C3       0.78409    0.24196    0.41637   1.00
C3       0.74823    0.21498    0.58405   1.00
C5       0.67713    0.26758    0.47772   1.00
H1       0.75371    0.31246    0.52691   1.00
H1       0.68959    0.26471    0.39979   1.00
H1       0.75363    0.31250    0.59901   1.00
H1       0.81088    0.23542    0.40099   1.00
H1       0.74664    0.18791    0.60021   1.00
C5       0.74579    0.17515    0.52228   1.00
H1       0.81087    0.23552    0.47309   1.00
H2       0.73355    0.15304    0.54256   1.00
H2       0.72520    0.17677    0.49731   1.00
H2       0.65242    0.26225    0.45744   1.00
H2       0.67273    0.24740    0.50269   1.00
N1       0.78421    0.16251    0.50857   1.00
C6       0.81484    0.15300    0.53073   1.00
C6       0.79501    0.15721    0.47154   1.00
C6       0.84578    0.14198    0.50759   1.00
C6       0.83316    0.14465    0.46995   1.00
H3       0.81497    0.15429    0.56197   1.00
H3       0.77642    0.16244    0.44700   1.00
H3       0.87432    0.13298    0.51713   1.00
H3       0.84992    0.13819    0.44425   1.00
N1       0.67612    0.30801    0.49143   1.00
C6       0.67416    0.31989    0.52846   1.00
C6       0.67586    0.34009    0.46927   1.00
C6       0.67315    0.36004    0.53005   1.00
C6       0.67424    0.37289    0.49241   1.00
H3       0.67380    0.30058    0.55300   1.00
H3       0.67712    0.33984    0.43803   1.00
H3       0.67180    0.37795    0.55575   1.00
H3       0.67386    0.40282    0.48287   1.00
C4       0.75016    0.47915    0.24988   1.00
C4       0.74984    0.52085    0.25012   1.00
C3a      0.75868    0.45746    0.21534   1.00
C3       0.78490    0.54232    0.25229   1.00
C3       0.74212    0.45768    0.28408   1.00
C3a      0.71431    0.54254    0.24830   1.00
C2       0.75005    0.39488    0.25006   1.00
C2       0.75005    0.60512    0.25007   1.00
C3       0.75841    0.41595    0.21596   1.00
C3       0.78496    0.58363    0.25215   1.00
C3       0.74196    0.41637    0.28409   1.00
C3       0.71498    0.58405    0.24823   1.00
C5       0.76758    0.47772    0.17713   1.00
H1       0.81246    0.52691    0.25371   1.00
H1       0.76471    0.39979    0.18959   1.00
H1       0.81250    0.59901    0.25363   1.00
H1       0.73542    0.40099    0.31088   1.00
H1       0.68791    0.60021    0.24664   1.00
C5       0.67515    0.52228    0.24579   1.00
H1       0.73552    0.47309    0.31087   1.00
H2       0.65304    0.54256    0.23355   1.00
H2       0.67677    0.49731    0.22520   1.00
H2       0.76225    0.45744    0.15242   1.00
H2       0.74740    0.50269    0.17273   1.00
N1       0.66251    0.50857    0.28421   1.00
C6       0.65300    0.53073    0.31484   1.00
C6       0.65721    0.47154    0.29501   1.00
C6       0.64198    0.50759    0.34578   1.00
C6       0.64465    0.46995    0.33316   1.00
H3       0.65429    0.56197    0.31497   1.00
H3       0.66244    0.44700    0.27642   1.00
H3       0.63298    0.51713    0.37432   1.00
H3       0.63819    0.44425    0.34992   1.00
N1       0.80801    0.49143    0.17612   1.00
C6       0.81989    0.52846    0.17416   1.00
C6       0.84009    0.46927    0.17586   1.00
C6       0.86004    0.53005    0.17315   1.00
C6       0.87289    0.49241    0.17424   1.00
H3       0.80058    0.55300    0.17380   1.00
H3       0.83984    0.43803    0.17712   1.00
H3       0.87795    0.55575    0.17180   1.00
H3       0.90282    0.48287    0.17386   1.00
C4       0.52085    0.24988    0.24984   1.00
C4       0.47915    0.25012    0.25016   1.00
C3a      0.54254    0.21534    0.24132   1.00
C3       0.45768    0.25229    0.21510   1.00
C3       0.54232    0.28408    0.25788   1.00
C3a      0.45746    0.24830    0.28569   1.00
C2       0.60512    0.25006    0.24995   1.00
C2       0.39488    0.25007    0.24995   1.00
C3       0.58405    0.21596    0.24159   1.00
C3       0.41637    0.25215    0.21504   1.00
C3       0.58363    0.28409    0.25804   1.00
C3       0.41595    0.24823    0.28502   1.00
C5       0.52228    0.17713    0.23242   1.00
H1       0.47309    0.25371    0.18754   1.00
H1       0.60021    0.18959    0.23529   1.00
H1       0.40099    0.25363    0.18750   1.00
H1       0.59901    0.31088    0.26458   1.00
H1       0.39979    0.24664    0.31209   1.00
C5       0.47772    0.24579    0.32485   1.00
H1       0.52691    0.31087    0.26448   1.00
H2       0.45744    0.23355    0.34696   1.00
H2       0.50269    0.22520    0.32323   1.00
H2       0.54256    0.15242    0.23775   1.00
H2       0.49731    0.17273    0.25260   1.00
N1       0.49143    0.28421    0.33749   1.00
C6       0.46927    0.31484    0.34700   1.00
C6       0.52846    0.29501    0.34279   1.00
C6       0.49241    0.34578    0.35802   1.00
C6       0.53005    0.33316    0.35535   1.00
H3       0.43803    0.31497    0.34571   1.00
H3       0.55300    0.27642    0.33756   1.00
H3       0.48287    0.37432    0.36702   1.00
H3       0.55575    0.34992    0.36181   1.00
N1       0.50857    0.17612    0.19199   1.00
C6       0.47154    0.17416    0.18011   1.00
C6       0.53073    0.17586    0.15991   1.00
C6       0.46995    0.17315    0.13996   1.00
C6       0.50759    0.17424    0.12711   1.00
H3       0.44700    0.17380    0.19942   1.00
H3       0.56197    0.17712    0.16016   1.00
H3       0.44425    0.17180    0.12205   1.00
H3       0.51713    0.17386    0.09718   1.00
C4       0.97915    0.24988    0.25016   1.00
C4       1.02085    0.25012    0.24984   1.00
C3a      0.95746    0.21534    0.25868   1.00
C3       1.04232    0.25229    0.28490   1.00
C3       0.95768    0.28408    0.24212   1.00
C3a      1.04254    0.24830    0.21431   1.00
C2       0.89488    0.25006    0.25005   1.00
C2       1.10512    0.25007    0.25005   1.00
C3       0.91595    0.21596    0.25841   1.00
C3       1.08363    0.25215    0.28496   1.00
C3       0.91637    0.28409    0.24196   1.00
C3       1.08405    0.24823    0.21498   1.00
C5       0.97772    0.17713    0.26758   1.00
H1       1.02691    0.25371    0.31246   1.00
H1       0.89979    0.18959    0.26471   1.00
H1       1.09901    0.25363    0.31250   1.00
H1       0.90099    0.31088    0.23542   1.00
H1       1.10021    0.24664    0.18791   1.00
C5       1.02228    0.24579    0.17515   1.00
H1       0.97309    0.31087    0.23552   1.00
H2       1.04256    0.23355    0.15304   1.00
H2       0.99731    0.22520    0.17677   1.00
H2       0.95744    0.15242    0.26225   1.00
H2       1.00269    0.17273    0.24740   1.00
N1       1.00857    0.28421    0.16251   1.00
C6       1.03073    0.31484    0.15300   1.00
C6       0.97154    0.29501    0.15721   1.00
C6       1.00759    0.34578    0.14198   1.00
C6       0.96995    0.33316    0.14465   1.00
H3       1.06197    0.31497    0.15429   1.00
H3       0.94700    0.27642    0.16244   1.00
H3       1.01713    0.37432    0.13298   1.00
H3       0.94425    0.34992    0.13819   1.00
N1       0.99143    0.17612    0.30801   1.00
C6       1.02846    0.17416    0.31989   1.00
C6       0.96927    0.17586    0.34009   1.00
C6       1.03005    0.17315    0.36004   1.00
C6       0.99241    0.17424    0.37289   1.00
H3       1.05300    0.17380    0.30058   1.00
H3       0.93803    0.17712    0.33984   1.00
H3       1.05575    0.17180    0.37795   1.00
H3       0.98287    0.17386    0.40282   1.00
C4       0.74984    0.02085    0.24988   1.00
C4       0.75016    -0.02085   0.25012   1.00
C3a      0.74132    0.04254    0.21534   1.00
C3       0.71510    -0.04232   0.25229   1.00
C3       0.75788    0.04232    0.28408   1.00
C3a      0.78569    -0.04254   0.24830   1.00
C2       0.74995    0.10512    0.25006   1.00
C2       0.74995    -0.10512   0.25007   1.00
C3       0.74159    0.08405    0.21596   1.00
C3       0.71504    -0.08363   0.25215   1.00
C3       0.75804    0.08363    0.28409   1.00
C3       0.78502    -0.08405   0.24823   1.00
C5       0.73242    0.02228    0.17713   1.00
H1       0.68754    -0.02691   0.25371   1.00
H1       0.73529    0.10021    0.18959   1.00
H1       0.68750    -0.09901   0.25363   1.00
H1       0.76458    0.09901    0.31088   1.00
H1       0.81209    -0.10021   0.24664   1.00
C5       0.82485    -0.02228   0.24579   1.00
H1       0.76448    0.02691    0.31087   1.00
H2       0.84696    -0.04256   0.23355   1.00
H2       0.82323    0.00269    0.22520   1.00
H2       0.73775    0.04256    0.15242   1.00
H2       0.75260    -0.00269   0.17273   1.00
N1       0.83749    -0.00857   0.28421   1.00
C6       0.84700    -0.03073   0.31484   1.00
C6       0.84279    0.02846    0.29501   1.00
C6       0.85802    -0.00759   0.34578   1.00
C6       0.85535    0.03005    0.33316   1.00
H3       0.84571    -0.06197   0.31497   1.00
H3       0.83756    0.05300    0.27642   1.00
H3       0.86702    -0.01713   0.37432   1.00
H3       0.86181    0.05575    0.34992   1.00
N1       0.69199    0.00857    0.17612   1.00
C6       0.68011    -0.02846   0.17416   1.00
C6       0.65991    0.03073    0.17586   1.00
C6       0.63996    -0.03005   0.17315   1.00
C6       0.62711    0.00759    0.17424   1.00
H3       0.69942    -0.05300   0.17380   1.00
H3       0.66016    0.06197    0.17712   1.00
H3       0.62205    -0.05575   0.17180   1.00
H3       0.59718    0.01713    0.17386   1.00
C4       0.74988    0.24984    0.02085   1.00
C4       0.75012    0.25016    -0.02085   1.00
C3a      0.71534    0.24132    0.04254   1.00
C3       0.75229    0.21510    -0.04232   1.00
C3       0.78408    0.25788    0.04232   1.00
C3a      0.74830    0.28569    -0.04254   1.00
C2       0.75006    0.24995    0.10512   1.00
C2       0.75007    0.24995    -0.10512   1.00
C3       0.71596    0.24159    0.08405   1.00
C3       0.75215    0.21504    -0.08363   1.00
C3       0.78409    0.25804    0.08363   1.00
C3       0.74823    0.28502    -0.08405   1.00
C5       0.67713    0.23242    0.02228   1.00
H1       0.75371    0.18754    -0.02691   1.00
H1       0.68959    0.23529    0.10021   1.00
H1       0.75363    0.18750    -0.09901   1.00
H1       0.81088    0.26458    0.09901   1.00
H1       0.74664    0.31209    -0.10021   1.00
C5       0.74579    0.32485    -0.02228   1.00
H1       0.81087    0.26448    0.02691   1.00
H2       0.73355    0.34696    -0.04256   1.00
H2       0.72520    0.32323    0.00269   1.00
H2       0.65242    0.23775    0.04256   1.00
H2       0.67273    0.25260    -0.00269   1.00
N1       0.78421    0.33749    -0.00857   1.00
C6       0.81484    0.34700    -0.03073   1.00
C6       0.79501    0.34279    0.02846   1.00
C6       0.84578    0.35802    -0.00759   1.00
C6       0.83316    0.35535    0.03005   1.00
H3       0.81497    0.34571    -0.06197   1.00
H3       0.77642    0.33756    0.05300   1.00
H3       0.87432    0.36702    -0.01713   1.00
H3       0.84992    0.36181    0.05575   1.00
N1       0.67612    0.19199    0.00857   1.00
C6       0.67416    0.18011    -0.02846   1.00
C6       0.67586    0.15991    0.03073   1.00
C6       0.67315    0.13996    -0.03005   1.00
C6       0.67424    0.12711    0.00759   1.00
H3       0.67380    0.19942    -0.05300   1.00
H3       0.67712    0.16016    0.06197   1.00
H3       0.67180    0.12205    -0.05575   1.00
H3       0.67386    0.09718    0.01713   1.00
C4       0.99988    1.00016    1.22915   1.00
C4       1.00012    0.99984    1.27085   1.00
C3a      0.96534    1.00868    1.20746   1.00
C3       1.00229    1.03490    1.29232   1.00
C3       1.03408    0.99212    1.20768   1.00
C3a      0.99830    0.96431    1.29254   1.00
C2       1.00006    1.00005    1.14488   1.00
C2       1.00007    1.00005    1.35512   1.00
C3       0.96596    1.00841    1.16595   1.00
C3       1.00215    1.03496    1.33363   1.00
C3       1.03409    0.99196    1.16637   1.00
C3       0.99823    0.96498    1.33405   1.00
C5       0.92713    1.01758    1.22772   1.00
H1       1.00371    1.06246    1.27691   1.00
H1       0.93959    1.01471    1.14979   1.00
H1       1.00363    1.06250    1.34901   1.00
H1       1.06088    0.98542    1.15099   1.00
H1       0.99664    0.93791    1.35021   1.00
C5       0.99579    0.92515    1.27228   1.00
H1       1.06087    0.98552    1.22309   1.00
H2       0.98355    0.90304    1.29256   1.00
H2       0.97520    0.92677    1.24731   1.00
H2       0.90242    1.01225    1.20744   1.00
H2       0.92273    0.99740    1.25269   1.00
N1       1.03421    0.91251    1.25857   1.00
C6       1.06484    0.90300    1.28073   1.00
C6       1.04501    0.90721    1.22154   1.00
C6       1.09578    0.89198    1.25759   1.00
C6       1.08316    0.89465    1.21995   1.00
H3       1.06497    0.90429    1.31197   1.00
H3       1.02642    0.91244    1.19700   1.00
H3       1.12432    0.88298    1.26713   1.00
H3       1.09992    0.88819    1.19425   1.00
N1       0.92612    1.05801    1.24143   1.00
C6       0.92416    1.06989    1.27846   1.00
C6       0.92586    1.09009    1.21927   1.00
C6       0.92315    1.11004    1.28005   1.00
C6       0.92424    1.12289    1.24241   1.00
H3       0.92380    1.05058    1.30300   1.00
H3       0.92712    1.08984    1.18803   1.00
H3       0.92180    1.12795    1.30575   1.00
H3       0.92386    1.15282    1.23287   1.00
C4       1.00016    1.22915    0.99988   1.00
C4       0.99984    1.27085    1.00012   1.00
C3a      1.00868    1.20746    0.96534   1.00
C3       1.03490    1.29232    1.00229   1.00
C3       0.99212    1.20768    1.03408   1.00
C3a      0.96431    1.29254    0.99830   1.00
C2       1.00005    1.14488    1.00006   1.00
C2       1.00005    1.35512    1.00007   1.00
C3       1.00841    1.16595    0.96596   1.00
C3       1.03496    1.33363    1.00215   1.00
C3       0.99196    1.16637    1.03409   1.00
C3       0.96498    1.33405    0.99823   1.00
C5       1.01758    1.22772    0.92713   1.00
H1       1.06246    1.27691    1.00371   1.00
H1       1.01471    1.14979    0.93959   1.00
H1       1.06250    1.34901    1.00363   1.00
H1       0.98542    1.15099    1.06088   1.00
H1       0.93791    1.35021    0.99664   1.00
C5       0.92515    1.27228    0.99579   1.00
H1       0.98552    1.22309    1.06087   1.00
H2       0.90304    1.29256    0.98355   1.00
H2       0.92677    1.24731    0.97520   1.00
H2       1.01225    1.20744    0.90242   1.00
H2       0.99740    1.25269    0.92273   1.00
N1       0.91251    1.25857    1.03421   1.00
C6       0.90300    1.28073    1.06484   1.00
C6       0.90721    1.22154    1.04501   1.00
C6       0.89198    1.25759    1.09578   1.00
C6       0.89465    1.21995    1.08316   1.00
H3       0.90429    1.31197    1.06497   1.00
H3       0.91244    1.19700    1.02642   1.00
H3       0.88298    1.26713    1.12432   1.00
H3       0.88819    1.19425    1.09992   1.00
N1       1.05801    1.24143    0.92612   1.00
C6       1.06989    1.27846    0.92416   1.00
C6       1.09009    1.21927    0.92586   1.00
C6       1.11004    1.28005    0.92315   1.00
C6       1.12289    1.24241    0.92424   1.00
H3       1.05058    1.30300    0.92380   1.00
H3       1.08984    1.18803    0.92712   1.00
H3       1.12795    1.30575    0.92180   1.00
H3       1.15282    1.23287    0.92386   1.00
C4       0.77085    0.99988    0.99984   1.00
C4       0.72915    1.00012    1.00016   1.00
C3a      0.79254    0.96534    0.99132   1.00
C3       0.70768    1.00229    0.96510   1.00
C3       0.79232    1.03408    1.00788   1.00
C3a      0.70746    0.99830    1.03569   1.00
C2       0.85512    1.00006    0.99995   1.00
C2       0.64488    1.00007    0.99995   1.00
C3       0.83405    0.96596    0.99159   1.00
C3       0.66637    1.00215    0.96504   1.00
C3       0.83363    1.03409    1.00804   1.00
C3       0.66595    0.99823    1.03502   1.00
C5       0.77228    0.92713    0.98242   1.00
H1       0.72309    1.00371    0.93754   1.00
H1       0.85021    0.93959    0.98529   1.00
H1       0.65099    1.00363    0.93750   1.00
H1       0.84901    1.06088    1.01458   1.00
H1       0.64979    0.99664    1.06209   1.00
C5       0.72772    0.99579    1.07485   1.00
H1       0.77691    1.06087    1.01448   1.00
H2       0.70744    0.98355    1.09696   1.00
H2       0.75269    0.97520    1.07323   1.00
H2       0.79256    0.90242    0.98775   1.00
H2       0.74731    0.92273    1.00260   1.00
N1       0.74143    1.03421    1.08749   1.00
C6       0.71927    1.06484    1.09700   1.00
C6       0.77846    1.04501    1.09279   1.00
C6       0.74241    1.09578    1.10802   1.00
C6       0.78005    1.08316    1.10535   1.00
H3       0.68803    1.06497    1.09571   1.00
H3       0.80300    1.02642    1.08756   1.00
H3       0.73287    1.12432    1.11702   1.00
H3       0.80575    1.09992    1.11181   1.00
N1       0.75857    0.92612    0.94199   1.00
C6       0.72154    0.92416    0.93011   1.00
C6       0.78073    0.92586    0.90991   1.00
C6       0.71995    0.92315    0.88996   1.00
C6       0.75759    0.92424    0.87711   1.00
H3       0.69700    0.92380    0.94942   1.00
H3       0.81197    0.92712    0.91016   1.00
H3       0.69425    0.92180    0.87205   1.00
H3       0.76713    0.92386    0.84718   1.00
C4       1.22915    0.99988    1.00016   1.00
C4       1.27085    1.00012    0.99984   1.00
C3a      1.20746    0.96534    1.00868   1.00
C3       1.29232    1.00229    1.03490   1.00
C3       1.20768    1.03408    0.99212   1.00
C3a      1.29254    0.99830    0.96431   1.00
C2       1.14488    1.00006    1.00005   1.00
C2       1.35512    1.00007    1.00005   1.00
C3       1.16595    0.96596    1.00841   1.00
C3       1.33363    1.00215    1.03496   1.00
C3       1.16637    1.03409    0.99196   1.00
C3       1.33405    0.99823    0.96498   1.00
C5       1.22772    0.92713    1.01758   1.00
H1       1.27691    1.00371    1.06246   1.00
H1       1.14979    0.93959    1.01471   1.00
H1       1.34901    1.00363    1.06250   1.00
H1       1.15099    1.06088    0.98542   1.00
H1       1.35021    0.99664    0.93791   1.00
C5       1.27228    0.99579    0.92515   1.00
H1       1.22309    1.06087    0.98552   1.00
H2       1.29256    0.98355    0.90304   1.00
H2       1.24731    0.97520    0.92677   1.00
H2       1.20744    0.90242    1.01225   1.00
H2       1.25269    0.92273    0.99740   1.00
N1       1.25857    1.03421    0.91251   1.00
C6       1.28073    1.06484    0.90300   1.00
C6       1.22154    1.04501    0.90721   1.00
C6       1.25759    1.09578    0.89198   1.00
C6       1.21995    1.08316    0.89465   1.00
H3       1.31197    1.06497    0.90429   1.00
H3       1.19700    1.02642    0.91244   1.00
H3       1.26713    1.12432    0.88298   1.00
H3       1.19425    1.09992    0.88819   1.00
N1       1.24143    0.92612    1.05801   1.00
C6       1.27846    0.92416    1.06989   1.00
C6       1.21927    0.92586    1.09009   1.00
C6       1.28005    0.92315    1.11004   1.00
C6       1.24241    0.92424    1.12289   1.00
H3       1.30300    0.92380    1.05058   1.00
H3       1.18803    0.92712    1.08984   1.00
H3       1.30575    0.92180    1.12795   1.00
H3       1.23287    0.92386    1.15282   1.00
C4       0.99984    0.77085    0.99988   1.00
C4       1.00016    0.72915    1.00012   1.00
C3a      0.99132    0.79254    0.96534   1.00
C3       0.96510    0.70768    1.00229   1.00
C3       1.00788    0.79232    1.03408   1.00
C3a      1.03569    0.70746    0.99830   1.00
C2       0.99995    0.85512    1.00006   1.00
C2       0.99995    0.64488    1.00007   1.00
C3       0.99159    0.83405    0.96596   1.00
C3       0.96504    0.66637    1.00215   1.00
C3       1.00804    0.83363    1.03409   1.00
C3       1.03502    0.66595    0.99823   1.00
C5       0.98242    0.77228    0.92713   1.00
H1       0.93754    0.72309    1.00371   1.00
H1       0.98529    0.85021    0.93959   1.00
H1       0.93750    0.65099    1.00363   1.00
H1       1.01458    0.84901    1.06088   1.00
H1       1.06209    0.64979    0.99664   1.00
C5       1.07485    0.72772    0.99579   1.00
H1       1.01448    0.77691    1.06087   1.00
H2       1.09696    0.70744    0.98355   1.00
H2       1.07323    0.75269    0.97520   1.00
H2       0.98775    0.79256    0.90242   1.00
H2       1.00260    0.74731    0.92273   1.00
N1       1.08749    0.74143    1.03421   1.00
C6       1.09700    0.71927    1.06484   1.00
C6       1.09279    0.77846    1.04501   1.00
C6       1.10802    0.74241    1.09578   1.00
C6       1.10535    0.78005    1.08316   1.00
H3       1.09571    0.68803    1.06497   1.00
H3       1.08756    0.80300    1.02642   1.00
H3       1.11702    0.73287    1.12432   1.00
H3       1.11181    0.80575    1.09992   1.00
N1       0.94199    0.75857    0.92612   1.00
C6       0.93011    0.72154    0.92416   1.00
C6       0.90991    0.78073    0.92586   1.00
C6       0.88996    0.71995    0.92315   1.00
C6       0.87711    0.75759    0.92424   1.00
H3       0.94942    0.69700    0.92380   1.00
H3       0.91016    0.81197    0.92712   1.00
H3       0.87205    0.69425    0.92180   1.00
H3       0.84718    0.76713    0.92386   1.00
C4       0.99988    0.99984    0.77085   1.00
C4       1.00012    1.00016    0.72915   1.00
C3a      0.96534    0.99132    0.79254   1.00
C3       1.00229    0.96510    0.70768   1.00
C3       1.03408    1.00788    0.79232   1.00
C3a      0.99830    1.03569    0.70746   1.00
C2       1.00006    0.99995    0.85512   1.00
C2       1.00007    0.99995    0.64488   1.00
C3       0.96596    0.99159    0.83405   1.00
C3       1.00215    0.96504    0.66637   1.00
C3       1.03409    1.00804    0.83363   1.00
C3       0.99823    1.03502    0.66595   1.00
C5       0.92713    0.98242    0.77228   1.00
H1       1.00371    0.93754    0.72309   1.00
H1       0.93959    0.98529    0.85021   1.00
H1       1.00363    0.93750    0.65099   1.00
H1       1.06088    1.01458    0.84901   1.00
H1       0.99664    1.06209    0.64979   1.00
C5       0.99579    1.07485    0.72772   1.00
H1       1.06087    1.01448    0.77691   1.00
H2       0.98355    1.09696    0.70744   1.00
H2       0.97520    1.07323    0.75269   1.00
H2       0.90242    0.98775    0.79256   1.00
H2       0.92273    1.00260    0.74731   1.00
N1       1.03421    1.08749    0.74143   1.00
C6       1.06484    1.09700    0.71927   1.00
C6       1.04501    1.09279    0.77846   1.00
C6       1.09578    1.10802    0.74241   1.00
C6       1.08316    1.10535    0.78005   1.00
H3       1.06497    1.09571    0.68803   1.00
H3       1.02642    1.08756    0.80300   1.00
H3       1.12432    1.11702    0.73287   1.00
H3       1.09992    1.11181    0.80575   1.00
N1       0.92612    0.94199    0.75857   1.00
C6       0.92416    0.93011    0.72154   1.00
C6       0.92586    0.90991    0.78073   1.00
C6       0.92315    0.88996    0.71995   1.00
C6       0.92424    0.87711    0.75759   1.00
H3       0.92380    0.94942    0.69700   1.00
H3       0.92712    0.91016    0.81197   1.00
H3       0.92180    0.87205    0.69425   1.00
H3       0.92386    0.84718    0.76713   1.00
C4       0.49988    0.50016    1.22915   1.00
C4       0.50012    0.49984    1.27085   1.00
C3a      0.46534    0.50868    1.20746   1.00
C3       0.50229    0.53490    1.29232   1.00
C3       0.53408    0.49212    1.20768   1.00
C3a      0.49830    0.46431    1.29254   1.00
C2       0.50006    0.50005    1.14488   1.00
C2       0.50007    0.50005    1.35512   1.00
C3       0.46596    0.50841    1.16595   1.00
C3       0.50215    0.53496    1.33363   1.00
C3       0.53409    0.49196    1.16637   1.00
C3       0.49823    0.46498    1.33405   1.00
C5       0.42713    0.51758    1.22772   1.00
H1       0.50371    0.56246    1.27691   1.00
H1       0.43959    0.51471    1.14979   1.00
H1       0.50363    0.56250    1.34901   1.00
H1       0.56088    0.48542    1.15099   1.00
H1       0.49664    0.43791    1.35021   1.00
C5       0.49579    0.42515    1.27228   1.00
H1       0.56087    0.48552    1.22309   1.00
H2       0.48355    0.40304    1.29256   1.00
H2       0.47520    0.42677    1.24731   1.00
H2       0.40242    0.51225    1.20744   1.00
H2       0.42273    0.49740    1.25269   1.00
N1       0.53421    0.41251    1.25857   1.00
C6       0.56484    0.40300    1.28073   1.00
C6       0.54501    0.40721    1.22154   1.00
C6       0.59578    0.39198    1.25759   1.00
C6       0.58316    0.39465    1.21995   1.00
H3       0.56497    0.40429    1.31197   1.00
H3       0.52642    0.41244    1.19700   1.00
H3       0.62432    0.38298    1.26713   1.00
H3       0.59992    0.38819    1.19425   1.00
N1       0.42612    0.55801    1.24143   1.00
C6       0.42416    0.56989    1.27846   1.00
C6       0.42586    0.59009    1.21927   1.00
C6       0.42315    0.61004    1.28005   1.00
C6       0.42424    0.62289    1.24241   1.00
H3       0.42380    0.55058    1.30300   1.00
H3       0.42712    0.58984    1.18803   1.00
H3       0.42180    0.62795    1.30575   1.00
H3       0.42386    0.65282    1.23287   1.00
C4       0.50016    0.72915    0.99988   1.00
C4       0.49984    0.77085    1.00012   1.00
C3a      0.50868    0.70746    0.96534   1.00
C3       0.53490    0.79232    1.00229   1.00
C3       0.49212    0.70768    1.03408   1.00
C3a      0.46431    0.79254    0.99830   1.00
C2       0.50005    0.64488    1.00006   1.00
C2       0.50005    0.85512    1.00007   1.00
C3       0.50841    0.66595    0.96596   1.00
C3       0.53496    0.83363    1.00215   1.00
C3       0.49196    0.66637    1.03409   1.00
C3       0.46498    0.83405    0.99823   1.00
C5       0.51758    0.72772    0.92713   1.00
H1       0.56246    0.77691    1.00371   1.00
H1       0.51471    0.64979    0.93959   1.00
H1       0.56250    0.84901    1.00363   1.00
H1       0.48542    0.65099    1.06088   1.00
H1       0.43791    0.85021    0.99664   1.00
C5       0.42515    0.77228    0.99579   1.00
H1       0.48552    0.72309    1.06087   1.00
H2       0.40304    0.79256    0.98355   1.00
H2       0.42677    0.74731    0.97520   1.00
H2       0.51225    0.70744    0.90242   1.00
H2       0.49740    0.75269    0.92273   1.00
N1       0.41251    0.75857    1.03421   1.00
C6       0.40300    0.78073    1.06484   1.00
C6       0.40721    0.72154    1.04501   1.00
C6       0.39198    0.75759    1.09578   1.00
C6       0.39465    0.71995    1.08316   1.00
H3       0.40429    0.81197    1.06497   1.00
H3       0.41244    0.69700    1.02642   1.00
H3       0.38298    0.76713    1.12432   1.00
H3       0.38819    0.69425    1.09992   1.00
N1       0.55801    0.74143    0.92612   1.00
C6       0.56989    0.77846    0.92416   1.00
C6       0.59009    0.71927    0.92586   1.00
C6       0.61004    0.78005    0.92315   1.00
C6       0.62289    0.74241    0.92424   1.00
H3       0.55058    0.80300    0.92380   1.00
H3       0.58984    0.68803    0.92712   1.00
H3       0.62795    0.80575    0.92180   1.00
H3       0.65282    0.73287    0.92386   1.00
C4       0.27085    0.49988    0.99984   1.00
C4       0.22915    0.50012    1.00016   1.00
C3a      0.29254    0.46534    0.99132   1.00
C3       0.20768    0.50229    0.96510   1.00
C3       0.29232    0.53408    1.00788   1.00
C3a      0.20746    0.49830    1.03569   1.00
C2       0.35512    0.50006    0.99995   1.00
C2       0.14488    0.50007    0.99995   1.00
C3       0.33405    0.46596    0.99159   1.00
C3       0.16637    0.50215    0.96504   1.00
C3       0.33363    0.53409    1.00804   1.00
C3       0.16595    0.49823    1.03502   1.00
C5       0.27228    0.42713    0.98242   1.00
H1       0.22309    0.50371    0.93754   1.00
H1       0.35021    0.43959    0.98529   1.00
H1       0.15099    0.50363    0.93750   1.00
H1       0.34901    0.56088    1.01458   1.00
H1       0.14979    0.49664    1.06209   1.00
C5       0.22772    0.49579    1.07485   1.00
H1       0.27691    0.56087    1.01448   1.00
H2       0.20744    0.48355    1.09696   1.00
H2       0.25269    0.47520    1.07323   1.00
H2       0.29256    0.40242    0.98775   1.00
H2       0.24731    0.42273    1.00260   1.00
N1       0.24143    0.53421    1.08749   1.00
C6       0.21927    0.56484    1.09700   1.00
C6       0.27846    0.54501    1.09279   1.00
C6       0.24241    0.59578    1.10802   1.00
C6       0.28005    0.58316    1.10535   1.00
H3       0.18803    0.56497    1.09571   1.00
H3       0.30300    0.52642    1.08756   1.00
H3       0.23287    0.62432    1.11702   1.00
H3       0.30575    0.59992    1.11181   1.00
N1       0.25857    0.42612    0.94199   1.00
C6       0.22154    0.42416    0.93011   1.00
C6       0.28073    0.42586    0.90991   1.00
C6       0.21995    0.42315    0.88996   1.00
C6       0.25759    0.42424    0.87711   1.00
H3       0.19700    0.42380    0.94942   1.00
H3       0.31197    0.42712    0.91016   1.00
H3       0.19425    0.42180    0.87205   1.00
H3       0.26713    0.42386    0.84718   1.00
C4       0.72915    0.49988    1.00016   1.00
C4       0.77085    0.50012    0.99984   1.00
C3a      0.70746    0.46534    1.00868   1.00
C3       0.79232    0.50229    1.03490   1.00
C3       0.70768    0.53408    0.99212   1.00
C3a      0.79254    0.49830    0.96431   1.00
C2       0.64488    0.50006    1.00005   1.00
C2       0.85512    0.50007    1.00005   1.00
C3       0.66595    0.46596    1.00841   1.00
C3       0.83363    0.50215    1.03496   1.00
C3       0.66637    0.53409    0.99196   1.00
C3       0.83405    0.49823    0.96498   1.00
C5       0.72772    0.42713    1.01758   1.00
H1       0.77691    0.50371    1.06246   1.00
H1       0.64979    0.43959    1.01471   1.00
H1       0.84901    0.50363    1.06250   1.00
H1       0.65099    0.56088    0.98542   1.00
H1       0.85021    0.49664    0.93791   1.00
C5       0.77228    0.49579    0.92515   1.00
H1       0.72309    0.56087    0.98552   1.00
H2       0.79256    0.48355    0.90304   1.00
H2       0.74731    0.47520    0.92677   1.00
H2       0.70744    0.40242    1.01225   1.00
H2       0.75269    0.42273    0.99740   1.00
N1       0.75857    0.53421    0.91251   1.00
C6       0.78073    0.56484    0.90300   1.00
C6       0.72154    0.54501    0.90721   1.00
C6       0.75759    0.59578    0.89198   1.00
C6       0.71995    0.58316    0.89465   1.00
H3       0.81197    0.56497    0.90429   1.00
H3       0.69700    0.52642    0.91244   1.00
H3       0.76713    0.62432    0.88298   1.00
H3       0.69425    0.59992    0.88819   1.00
N1       0.74143    0.42612    1.05801   1.00
C6       0.77846    0.42416    1.06989   1.00
C6       0.71927    0.42586    1.09009   1.00
C6       0.78005    0.42315    1.11004   1.00
C6       0.74241    0.42424    1.12289   1.00
H3       0.80300    0.42380    1.05058   1.00
H3       0.68803    0.42712    1.08984   1.00
H3       0.80575    0.42180    1.12795   1.00
H3       0.73287    0.42386    1.15282   1.00
C4       0.49984    0.27085    0.99988   1.00
C4       0.50016    0.22915    1.00012   1.00
C3a      0.49132    0.29254    0.96534   1.00
C3       0.46510    0.20768    1.00229   1.00
C3       0.50788    0.29232    1.03408   1.00
C3a      0.53569    0.20746    0.99830   1.00
C2       0.49995    0.35512    1.00006   1.00
C2       0.49995    0.14488    1.00007   1.00
C3       0.49159    0.33405    0.96596   1.00
C3       0.46504    0.16637    1.00215   1.00
C3       0.50804    0.33363    1.03409   1.00
C3       0.53502    0.16595    0.99823   1.00
C5       0.48242    0.27228    0.92713   1.00
H1       0.43754    0.22309    1.00371   1.00
H1       0.48529    0.35021    0.93959   1.00
H1       0.43750    0.15099    1.00363   1.00
H1       0.51458    0.34901    1.06088   1.00
H1       0.56209    0.14979    0.99664   1.00
C5       0.57485    0.22772    0.99579   1.00
H1       0.51448    0.27691    1.06087   1.00
H2       0.59696    0.20744    0.98355   1.00
H2       0.57323    0.25269    0.97520   1.00
H2       0.48775    0.29256    0.90242   1.00
H2       0.50260    0.24731    0.92273   1.00
N1       0.58749    0.24143    1.03421   1.00
C6       0.59700    0.21927    1.06484   1.00
C6       0.59279    0.27846    1.04501   1.00
C6       0.60802    0.24241    1.09578   1.00
C6       0.60535    0.28005    1.08316   1.00
H3       0.59571    0.18803    1.06497   1.00
H3       0.58756    0.30300    1.02642   1.00
H3       0.61702    0.23287    1.12432   1.00
H3       0.61181    0.30575    1.09992   1.00
N1       0.44199    0.25857    0.92612   1.00
C6       0.43011    0.22154    0.92416   1.00
C6       0.40991    0.28073    0.92586   1.00
C6       0.38996    0.21995    0.92315   1.00
C6       0.37711    0.25759    0.92424   1.00
H3       0.44942    0.19700    0.92380   1.00
H3       0.41016    0.31197    0.92712   1.00
H3       0.37205    0.19425    0.92180   1.00
H3       0.34718    0.26713    0.92386   1.00
C4       0.49988    0.49984    0.77085   1.00
C4       0.50012    0.50016    0.72915   1.00
C3a      0.46534    0.49132    0.79254   1.00
C3       0.50229    0.46510    0.70768   1.00
C3       0.53408    0.50788    0.79232   1.00
C3a      0.49830    0.53569    0.70746   1.00
C2       0.50006    0.49995    0.85512   1.00
C2       0.50007    0.49995    0.64488   1.00
C3       0.46596    0.49159    0.83405   1.00
C3       0.50215    0.46504    0.66637   1.00
C3       0.53409    0.50804    0.83363   1.00
C3       0.49823    0.53502    0.66595   1.00
C5       0.42713    0.48242    0.77228   1.00
H1       0.50371    0.43754    0.72309   1.00
H1       0.43959    0.48529    0.85021   1.00
H1       0.50363    0.43750    0.65099   1.00
H1       0.56088    0.51458    0.84901   1.00
H1       0.49664    0.56209    0.64979   1.00
C5       0.49579    0.57485    0.72772   1.00
H1       0.56087    0.51448    0.77691   1.00
H2       0.48355    0.59696    0.70744   1.00
H2       0.47520    0.57323    0.75269   1.00
H2       0.40242    0.48775    0.79256   1.00
H2       0.42273    0.50260    0.74731   1.00
N1       0.53421    0.58749    0.74143   1.00
C6       0.56484    0.59700    0.71927   1.00
C6       0.54501    0.59279    0.77846   1.00
C6       0.59578    0.60802    0.74241   1.00
C6       0.58316    0.60535    0.78005   1.00
H3       0.56497    0.59571    0.68803   1.00
H3       0.52642    0.58756    0.80300   1.00
H3       0.62432    0.61702    0.73287   1.00
H3       0.59992    0.61181    0.80575   1.00
N1       0.42612    0.44199    0.75857   1.00
C6       0.42416    0.43011    0.72154   1.00
C6       0.42586    0.40991    0.78073   1.00
C6       0.42315    0.38996    0.71995   1.00
C6       0.42424    0.37711    0.75759   1.00
H3       0.42380    0.44942    0.69700   1.00
H3       0.42712    0.41016    0.81197   1.00
H3       0.42180    0.37205    0.69425   1.00
H3       0.42386    0.34718    0.76713   1.00
C4       0.49988    1.00016    0.72915   1.00
C4       0.50012    0.99984    0.77085   1.00
C3a      0.46534    1.00868    0.70746   1.00
C3       0.50229    1.03490    0.79232   1.00
C3       0.53408    0.99212    0.70768   1.00
C3a      0.49830    0.96431    0.79254   1.00
C2       0.50006    1.00005    0.64488   1.00
C2       0.50007    1.00005    0.85512   1.00
C3       0.46596    1.00841    0.66595   1.00
C3       0.50215    1.03496    0.83363   1.00
C3       0.53409    0.99196    0.66637   1.00
C3       0.49823    0.96498    0.83405   1.00
C5       0.42713    1.01758    0.72772   1.00
H1       0.50371    1.06246    0.77691   1.00
H1       0.43959    1.01471    0.64979   1.00
H1       0.50363    1.06250    0.84901   1.00
H1       0.56088    0.98542    0.65099   1.00
H1       0.49664    0.93791    0.85021   1.00
C5       0.49579    0.92515    0.77228   1.00
H1       0.56087    0.98552    0.72309   1.00
H2       0.48355    0.90304    0.79256   1.00
H2       0.47520    0.92677    0.74731   1.00
H2       0.40242    1.01225    0.70744   1.00
H2       0.42273    0.99740    0.75269   1.00
N1       0.53421    0.91251    0.75857   1.00
C6       0.56484    0.90300    0.78073   1.00
C6       0.54501    0.90721    0.72154   1.00
C6       0.59578    0.89198    0.75759   1.00
C6       0.58316    0.89465    0.71995   1.00
H3       0.56497    0.90429    0.81197   1.00
H3       0.52642    0.91244    0.69700   1.00
H3       0.62432    0.88298    0.76713   1.00
H3       0.59992    0.88819    0.69425   1.00
N1       0.42612    1.05801    0.74143   1.00
C6       0.42416    1.06989    0.77846   1.00
C6       0.42586    1.09009    0.71927   1.00
C6       0.42315    1.11004    0.78005   1.00
C6       0.42424    1.12289    0.74241   1.00
H3       0.42380    1.05058    0.80300   1.00
H3       0.42712    1.08984    0.68803   1.00
H3       0.42180    1.12795    0.80575   1.00
H3       0.42386    1.15282    0.73287   1.00
C4       0.50016    1.22915    0.49988   1.00
C4       0.49984    1.27085    0.50012   1.00
C3a      0.50868    1.20746    0.46534   1.00
C3       0.53490    1.29232    0.50229   1.00
C3       0.49212    1.20768    0.53408   1.00
C3a      0.46431    1.29254    0.49830   1.00
C2       0.50005    1.14488    0.50006   1.00
C2       0.50005    1.35512    0.50007   1.00
C3       0.50841    1.16595    0.46596   1.00
C3       0.53496    1.33363    0.50215   1.00
C3       0.49196    1.16637    0.53409   1.00
C3       0.46498    1.33405    0.49823   1.00
C5       0.51758    1.22772    0.42713   1.00
H1       0.56246    1.27691    0.50371   1.00
H1       0.51471    1.14979    0.43959   1.00
H1       0.56250    1.34901    0.50363   1.00
H1       0.48542    1.15099    0.56088   1.00
H1       0.43791    1.35021    0.49664   1.00
C5       0.42515    1.27228    0.49579   1.00
H1       0.48552    1.22309    0.56087   1.00
H2       0.40304    1.29256    0.48355   1.00
H2       0.42677    1.24731    0.47520   1.00
H2       0.51225    1.20744    0.40242   1.00
H2       0.49740    1.25269    0.42273   1.00
N1       0.41251    1.25857    0.53421   1.00
C6       0.40300    1.28073    0.56484   1.00
C6       0.40721    1.22154    0.54501   1.00
C6       0.39198    1.25759    0.59578   1.00
C6       0.39465    1.21995    0.58316   1.00
H3       0.40429    1.31197    0.56497   1.00
H3       0.41244    1.19700    0.52642   1.00
H3       0.38298    1.26713    0.62432   1.00
H3       0.38819    1.19425    0.59992   1.00
N1       0.55801    1.24143    0.42612   1.00
C6       0.56989    1.27846    0.42416   1.00
C6       0.59009    1.21927    0.42586   1.00
C6       0.61004    1.28005    0.42315   1.00
C6       0.62289    1.24241    0.42424   1.00
H3       0.55058    1.30300    0.42380   1.00
H3       0.58984    1.18803    0.42712   1.00
H3       0.62795    1.30575    0.42180   1.00
H3       0.65282    1.23287    0.42386   1.00
C4       0.27085    0.99988    0.49984   1.00
C4       0.22915    1.00012    0.50016   1.00
C3a      0.29254    0.96534    0.49132   1.00
C3       0.20768    1.00229    0.46510   1.00
C3       0.29232    1.03408    0.50788   1.00
C3a      0.20746    0.99830    0.53569   1.00
C2       0.35512    1.00006    0.49995   1.00
C2       0.14488    1.00007    0.49995   1.00
C3       0.33405    0.96596    0.49159   1.00
C3       0.16637    1.00215    0.46504   1.00
C3       0.33363    1.03409    0.50804   1.00
C3       0.16595    0.99823    0.53502   1.00
C5       0.27228    0.92713    0.48242   1.00
H1       0.22309    1.00371    0.43754   1.00
H1       0.35021    0.93959    0.48529   1.00
H1       0.15099    1.00363    0.43750   1.00
H1       0.34901    1.06088    0.51458   1.00
H1       0.14979    0.99664    0.56209   1.00
C5       0.22772    0.99579    0.57485   1.00
H1       0.27691    1.06087    0.51448   1.00
H2       0.20744    0.98355    0.59696   1.00
H2       0.25269    0.97520    0.57323   1.00
H2       0.29256    0.90242    0.48775   1.00
H2       0.24731    0.92273    0.50260   1.00
N1       0.24143    1.03421    0.58749   1.00
C6       0.21927    1.06484    0.59700   1.00
C6       0.27846    1.04501    0.59279   1.00
C6       0.24241    1.09578    0.60802   1.00
C6       0.28005    1.08316    0.60535   1.00
H3       0.18803    1.06497    0.59571   1.00
H3       0.30300    1.02642    0.58756   1.00
H3       0.23287    1.12432    0.61702   1.00
H3       0.30575    1.09992    0.61181   1.00
N1       0.25857    0.92612    0.44199   1.00
C6       0.22154    0.92416    0.43011   1.00
C6       0.28073    0.92586    0.40991   1.00
C6       0.21995    0.92315    0.38996   1.00
C6       0.25759    0.92424    0.37711   1.00
H3       0.19700    0.92380    0.44942   1.00
H3       0.31197    0.92712    0.41016   1.00
H3       0.19425    0.92180    0.37205   1.00
H3       0.26713    0.92386    0.34718   1.00
C4       0.72915    0.99988    0.50016   1.00
C4       0.77085    1.00012    0.49984   1.00
C3a      0.70746    0.96534    0.50868   1.00
C3       0.79232    1.00229    0.53490   1.00
C3       0.70768    1.03408    0.49212   1.00
C3a      0.79254    0.99830    0.46431   1.00
C2       0.64488    1.00006    0.50005   1.00
C2       0.85512    1.00007    0.50005   1.00
C3       0.66595    0.96596    0.50841   1.00
C3       0.83363    1.00215    0.53496   1.00
C3       0.66637    1.03409    0.49196   1.00
C3       0.83405    0.99823    0.46498   1.00
C5       0.72772    0.92713    0.51758   1.00
H1       0.77691    1.00371    0.56246   1.00
H1       0.64979    0.93959    0.51471   1.00
H1       0.84901    1.00363    0.56250   1.00
H1       0.65099    1.06088    0.48542   1.00
H1       0.85021    0.99664    0.43791   1.00
C5       0.77228    0.99579    0.42515   1.00
H1       0.72309    1.06087    0.48552   1.00
H2       0.79256    0.98355    0.40304   1.00
H2       0.74731    0.97520    0.42677   1.00
H2       0.70744    0.90242    0.51225   1.00
H2       0.75269    0.92273    0.49740   1.00
N1       0.75857    1.03421    0.41251   1.00
C6       0.78073    1.06484    0.40300   1.00
C6       0.72154    1.04501    0.40721   1.00
C6       0.75759    1.09578    0.39198   1.00
C6       0.71995    1.08316    0.39465   1.00
H3       0.81197    1.06497    0.40429   1.00
H3       0.69700    1.02642    0.41244   1.00
H3       0.76713    1.12432    0.38298   1.00
H3       0.69425    1.09992    0.38819   1.00
N1       0.74143    0.92612    0.55801   1.00
C6       0.77846    0.92416    0.56989   1.00
C6       0.71927    0.92586    0.59009   1.00
C6       0.78005    0.92315    0.61004   1.00
C6       0.74241    0.92424    0.62289   1.00
H3       0.80300    0.92380    0.55058   1.00
H3       0.68803    0.92712    0.58984   1.00
H3       0.80575    0.92180    0.62795   1.00
H3       0.73287    0.92386    0.65282   1.00
C4       0.49984    0.77085    0.49988   1.00
C4       0.50016    0.72915    0.50012   1.00
C3a      0.49132    0.79254    0.46534   1.00
C3       0.46510    0.70768    0.50229   1.00
C3       0.50788    0.79232    0.53408   1.00
C3a      0.53569    0.70746    0.49830   1.00
C2       0.49995    0.85512    0.50006   1.00
C2       0.49995    0.64488    0.50007   1.00
C3       0.49159    0.83405    0.46596   1.00
C3       0.46504    0.66637    0.50215   1.00
C3       0.50804    0.83363    0.53409   1.00
C3       0.53502    0.66595    0.49823   1.00
C5       0.48242    0.77228    0.42713   1.00
H1       0.43754    0.72309    0.50371   1.00
H1       0.48529    0.85021    0.43959   1.00
H1       0.43750    0.65099    0.50363   1.00
H1       0.51458    0.84901    0.56088   1.00
H1       0.56209    0.64979    0.49664   1.00
C5       0.57485    0.72772    0.49579   1.00
H1       0.51448    0.77691    0.56087   1.00
H2       0.59696    0.70744    0.48355   1.00
H2       0.57323    0.75269    0.47520   1.00
H2       0.48775    0.79256    0.40242   1.00
H2       0.50260    0.74731    0.42273   1.00
N1       0.58749    0.74143    0.53421   1.00
C6       0.59700    0.71927    0.56484   1.00
C6       0.59279    0.77846    0.54501   1.00
C6       0.60802    0.74241    0.59578   1.00
C6       0.60535    0.78005    0.58316   1.00
H3       0.59571    0.68803    0.56497   1.00
H3       0.58756    0.80300    0.52642   1.00
H3       0.61702    0.73287    0.62432   1.00
H3       0.61181    0.80575    0.59992   1.00
N1       0.44199    0.75857    0.42612   1.00
C6       0.43011    0.72154    0.42416   1.00
C6       0.40991    0.78073    0.42586   1.00
C6       0.38996    0.71995    0.42315   1.00
C6       0.37711    0.75759    0.42424   1.00
H3       0.44942    0.69700    0.42380   1.00
H3       0.41016    0.81197    0.42712   1.00
H3       0.37205    0.69425    0.42180   1.00
H3       0.34718    0.76713    0.42386   1.00
C4       0.49988    0.99984    0.27085   1.00
C4       0.50012    1.00016    0.22915   1.00
C3a      0.46534    0.99132    0.29254   1.00
C3       0.50229    0.96510    0.20768   1.00
C3       0.53408    1.00788    0.29232   1.00
C3a      0.49830    1.03569    0.20746   1.00
C2       0.50006    0.99995    0.35512   1.00
C2       0.50007    0.99995    0.14488   1.00
C3       0.46596    0.99159    0.33405   1.00
C3       0.50215    0.96504    0.16637   1.00
C3       0.53409    1.00804    0.33363   1.00
C3       0.49823    1.03502    0.16595   1.00
C5       0.42713    0.98242    0.27228   1.00
H1       0.50371    0.93754    0.22309   1.00
H1       0.43959    0.98529    0.35021   1.00
H1       0.50363    0.93750    0.15099   1.00
H1       0.56088    1.01458    0.34901   1.00
H1       0.49664    1.06209    0.14979   1.00
C5       0.49579    1.07485    0.22772   1.00
H1       0.56087    1.01448    0.27691   1.00
H2       0.48355    1.09696    0.20744   1.00
H2       0.47520    1.07323    0.25269   1.00
H2       0.40242    0.98775    0.29256   1.00
H2       0.42273    1.00260    0.24731   1.00
N1       0.53421    1.08749    0.24143   1.00
C6       0.56484    1.09700    0.21927   1.00
C6       0.54501    1.09279    0.27846   1.00
C6       0.59578    1.10802    0.24241   1.00
C6       0.58316    1.10535    0.28005   1.00
H3       0.56497    1.09571    0.18803   1.00
H3       0.52642    1.08756    0.30300   1.00
H3       0.62432    1.11702    0.23287   1.00
H3       0.59992    1.11181    0.30575   1.00
N1       0.42612    0.94199    0.25857   1.00
C6       0.42416    0.93011    0.22154   1.00
C6       0.42586    0.90991    0.28073   1.00
C6       0.42315    0.88996    0.21995   1.00
C6       0.42424    0.87711    0.25759   1.00
H3       0.42380    0.94942    0.19700   1.00
H3       0.42712    0.91016    0.31197   1.00
H3       0.42180    0.87205    0.19425   1.00
H3       0.42386    0.84718    0.26713   1.00
C4       0.99988    0.50016    0.72915   1.00
C4       1.00012    0.49984    0.77085   1.00
C3a      0.96534    0.50868    0.70746   1.00
C3       1.00229    0.53490    0.79232   1.00
C3       1.03408    0.49212    0.70768   1.00
C3a      0.99830    0.46431    0.79254   1.00
C2       1.00006    0.50005    0.64488   1.00
C2       1.00007    0.50005    0.85512   1.00
C3       0.96596    0.50841    0.66595   1.00
C3       1.00215    0.53496    0.83363   1.00
C3       1.03409    0.49196    0.66637   1.00
C3       0.99823    0.46498    0.83405   1.00
C5       0.92713    0.51758    0.72772   1.00
H1       1.00371    0.56246    0.77691   1.00
H1       0.93959    0.51471    0.64979   1.00
H1       1.00363    0.56250    0.84901   1.00
H1       1.06088    0.48542    0.65099   1.00
H1       0.99664    0.43791    0.85021   1.00
C5       0.99579    0.42515    0.77228   1.00
H1       1.06087    0.48552    0.72309   1.00
H2       0.98355    0.40304    0.79256   1.00
H2       0.97520    0.42677    0.74731   1.00
H2       0.90242    0.51225    0.70744   1.00
H2       0.92273    0.49740    0.75269   1.00
N1       1.03421    0.41251    0.75857   1.00
C6       1.06484    0.40300    0.78073   1.00
C6       1.04501    0.40721    0.72154   1.00
C6       1.09578    0.39198    0.75759   1.00
C6       1.08316    0.39465    0.71995   1.00
H3       1.06497    0.40429    0.81197   1.00
H3       1.02642    0.41244    0.69700   1.00
H3       1.12432    0.38298    0.76713   1.00
H3       1.09992    0.38819    0.69425   1.00
N1       0.92612    0.55801    0.74143   1.00
C6       0.92416    0.56989    0.77846   1.00
C6       0.92586    0.59009    0.71927   1.00
C6       0.92315    0.61004    0.78005   1.00
C6       0.92424    0.62289    0.74241   1.00
H3       0.92380    0.55058    0.80300   1.00
H3       0.92712    0.58984    0.68803   1.00
H3       0.92180    0.62795    0.80575   1.00
H3       0.92386    0.65282    0.73287   1.00
C4       1.00016    0.72915    0.49988   1.00
C4       0.99984    0.77085    0.50012   1.00
C3a      1.00868    0.70746    0.46534   1.00
C3       1.03490    0.79232    0.50229   1.00
C3       0.99212    0.70768    0.53408   1.00
C3a      0.96431    0.79254    0.49830   1.00
C2       1.00005    0.64488    0.50006   1.00
C2       1.00005    0.85512    0.50007   1.00
C3       1.00841    0.66595    0.46596   1.00
C3       1.03496    0.83363    0.50215   1.00
C3       0.99196    0.66637    0.53409   1.00
C3       0.96498    0.83405    0.49823   1.00
C5       1.01758    0.72772    0.42713   1.00
H1       1.06246    0.77691    0.50371   1.00
H1       1.01471    0.64979    0.43959   1.00
H1       1.06250    0.84901    0.50363   1.00
H1       0.98542    0.65099    0.56088   1.00
H1       0.93791    0.85021    0.49664   1.00
C5       0.92515    0.77228    0.49579   1.00
H1       0.98552    0.72309    0.56087   1.00
H2       0.90304    0.79256    0.48355   1.00
H2       0.92677    0.74731    0.47520   1.00
H2       1.01225    0.70744    0.40242   1.00
H2       0.99740    0.75269    0.42273   1.00
N1       0.91251    0.75857    0.53421   1.00
C6       0.90300    0.78073    0.56484   1.00
C6       0.90721    0.72154    0.54501   1.00
C6       0.89198    0.75759    0.59578   1.00
C6       0.89465    0.71995    0.58316   1.00
H3       0.90429    0.81197    0.56497   1.00
H3       0.91244    0.69700    0.52642   1.00
H3       0.88298    0.76713    0.62432   1.00
H3       0.88819    0.69425    0.59992   1.00
N1       1.05801    0.74143    0.42612   1.00
C6       1.06989    0.77846    0.42416   1.00
C6       1.09009    0.71927    0.42586   1.00
C6       1.11004    0.78005    0.42315   1.00
C6       1.12289    0.74241    0.42424   1.00
H3       1.05058    0.80300    0.42380   1.00
H3       1.08984    0.68803    0.42712   1.00
H3       1.12795    0.80575    0.42180   1.00
H3       1.15282    0.73287    0.42386   1.00
C4       0.77085    0.49988    0.49984   1.00
C4       0.72915    0.50012    0.50016   1.00
C3a      0.79254    0.46534    0.49132   1.00
C3       0.70768    0.50229    0.46510   1.00
C3       0.79232    0.53408    0.50788   1.00
C3a      0.70746    0.49830    0.53569   1.00
C2       0.85512    0.50006    0.49995   1.00
C2       0.64488    0.50007    0.49995   1.00
C3       0.83405    0.46596    0.49159   1.00
C3       0.66637    0.50215    0.46504   1.00
C3       0.83363    0.53409    0.50804   1.00
C3       0.66595    0.49823    0.53502   1.00
C5       0.77228    0.42713    0.48242   1.00
H1       0.72309    0.50371    0.43754   1.00
H1       0.85021    0.43959    0.48529   1.00
H1       0.65099    0.50363    0.43750   1.00
H1       0.84901    0.56088    0.51458   1.00
H1       0.64979    0.49664    0.56209   1.00
C5       0.72772    0.49579    0.57485   1.00
H1       0.77691    0.56087    0.51448   1.00
H2       0.70744    0.48355    0.59696   1.00
H2       0.75269    0.47520    0.57323   1.00
H2       0.79256    0.40242    0.48775   1.00
H2       0.74731    0.42273    0.50260   1.00
N1       0.74143    0.53421    0.58749   1.00
C6       0.71927    0.56484    0.59700   1.00
C6       0.77846    0.54501    0.59279   1.00
C6       0.74241    0.59578    0.60802   1.00
C6       0.78005    0.58316    0.60535   1.00
H3       0.68803    0.56497    0.59571   1.00
H3       0.80300    0.52642    0.58756   1.00
H3       0.73287    0.62432    0.61702   1.00
H3       0.80575    0.59992    0.61181   1.00
N1       0.75857    0.42612    0.44199   1.00
C6       0.72154    0.42416    0.43011   1.00
C6       0.78073    0.42586    0.40991   1.00
C6       0.71995    0.42315    0.38996   1.00
C6       0.75759    0.42424    0.37711   1.00
H3       0.69700    0.42380    0.44942   1.00
H3       0.81197    0.42712    0.41016   1.00
H3       0.69425    0.42180    0.37205   1.00
H3       0.76713    0.42386    0.34718   1.00
C4       1.22915    0.49988    0.50016   1.00
C4       1.27085    0.50012    0.49984   1.00
C3a      1.20746    0.46534    0.50868   1.00
C3       1.29232    0.50229    0.53490   1.00
C3       1.20768    0.53408    0.49212   1.00
C3a      1.29254    0.49830    0.46431   1.00
C2       1.14488    0.50006    0.50005   1.00
C2       1.35512    0.50007    0.50005   1.00
C3       1.16595    0.46596    0.50841   1.00
C3       1.33363    0.50215    0.53496   1.00
C3       1.16637    0.53409    0.49196   1.00
C3       1.33405    0.49823    0.46498   1.00
C5       1.22772    0.42713    0.51758   1.00
H1       1.27691    0.50371    0.56246   1.00
H1       1.14979    0.43959    0.51471   1.00
H1       1.34901    0.50363    0.56250   1.00
H1       1.15099    0.56088    0.48542   1.00
H1       1.35021    0.49664    0.43791   1.00
C5       1.27228    0.49579    0.42515   1.00
H1       1.22309    0.56087    0.48552   1.00
H2       1.29256    0.48355    0.40304   1.00
H2       1.24731    0.47520    0.42677   1.00
H2       1.20744    0.40242    0.51225   1.00
H2       1.25269    0.42273    0.49740   1.00
N1       1.25857    0.53421    0.41251   1.00
C6       1.28073    0.56484    0.40300   1.00
C6       1.22154    0.54501    0.40721   1.00
C6       1.25759    0.59578    0.39198   1.00
C6       1.21995    0.58316    0.39465   1.00
H3       1.31197    0.56497    0.40429   1.00
H3       1.19700    0.52642    0.41244   1.00
H3       1.26713    0.62432    0.38298   1.00
H3       1.19425    0.59992    0.38819   1.00
N1       1.24143    0.42612    0.55801   1.00
C6       1.27846    0.42416    0.56989   1.00
C6       1.21927    0.42586    0.59009   1.00
C6       1.28005    0.42315    0.61004   1.00
C6       1.24241    0.42424    0.62289   1.00
H3       1.30300    0.42380    0.55058   1.00
H3       1.18803    0.42712    0.58984   1.00
H3       1.30575    0.42180    0.62795   1.00
H3       1.23287    0.42386    0.65282   1.00
C4       0.99984    0.27085    0.49988   1.00
C4       1.00016    0.22915    0.50012   1.00
C3a      0.99132    0.29254    0.46534   1.00
C3       0.96510    0.20768    0.50229   1.00
C3       1.00788    0.29232    0.53408   1.00
C3a      1.03569    0.20746    0.49830   1.00
C2       0.99995    0.35512    0.50006   1.00
C2       0.99995    0.14488    0.50007   1.00
C3       0.99159    0.33405    0.46596   1.00
C3       0.96504    0.16637    0.50215   1.00
C3       1.00804    0.33363    0.53409   1.00
C3       1.03502    0.16595    0.49823   1.00
C5       0.98242    0.27228    0.42713   1.00
H1       0.93754    0.22309    0.50371   1.00
H1       0.98529    0.35021    0.43959   1.00
H1       0.93750    0.15099    0.50363   1.00
H1       1.01458    0.34901    0.56088   1.00
H1       1.06209    0.14979    0.49664   1.00
C5       1.07485    0.22772    0.49579   1.00
H1       1.01448    0.27691    0.56087   1.00
H2       1.09696    0.20744    0.48355   1.00
H2       1.07323    0.25269    0.47520   1.00
H2       0.98775    0.29256    0.40242   1.00
H2       1.00260    0.24731    0.42273   1.00
N1       1.08749    0.24143    0.53421   1.00
C6       1.09700    0.21927    0.56484   1.00
C6       1.09279    0.27846    0.54501   1.00
C6       1.10802    0.24241    0.59578   1.00
C6       1.10535    0.28005    0.58316   1.00
H3       1.09571    0.18803    0.56497   1.00
H3       1.08756    0.30300    0.52642   1.00
H3       1.11702    0.23287    0.62432   1.00
H3       1.11181    0.30575    0.59992   1.00
N1       0.94199    0.25857    0.42612   1.00
C6       0.93011    0.22154    0.42416   1.00
C6       0.90991    0.28073    0.42586   1.00
C6       0.88996    0.21995    0.42315   1.00
C6       0.87711    0.25759    0.42424   1.00
H3       0.94942    0.19700    0.42380   1.00
H3       0.91016    0.31197    0.42712   1.00
H3       0.87205    0.19425    0.42180   1.00
H3       0.84718    0.26713    0.42386   1.00
C4       0.99988    0.49984    0.27085   1.00
C4       1.00012    0.50016    0.22915   1.00
C3a      0.96534    0.49132    0.29254   1.00
C3       1.00229    0.46510    0.20768   1.00
C3       1.03408    0.50788    0.29232   1.00
C3a      0.99830    0.53569    0.20746   1.00
C2       1.00006    0.49995    0.35512   1.00
C2       1.00007    0.49995    0.14488   1.00
C3       0.96596    0.49159    0.33405   1.00
C3       1.00215    0.46504    0.16637   1.00
C3       1.03409    0.50804    0.33363   1.00
C3       0.99823    0.53502    0.16595   1.00
C5       0.92713    0.48242    0.27228   1.00
H1       1.00371    0.43754    0.22309   1.00
H1       0.93959    0.48529    0.35021   1.00
H1       1.00363    0.43750    0.15099   1.00
H1       1.06088    0.51458    0.34901   1.00
H1       0.99664    0.56209    0.14979   1.00
C5       0.99579    0.57485    0.22772   1.00
H1       1.06087    0.51448    0.27691   1.00
H2       0.98355    0.59696    0.20744   1.00
H2       0.97520    0.57323    0.25269   1.00
H2       0.90242    0.48775    0.29256   1.00
H2       0.92273    0.50260    0.24731   1.00
N1       1.03421    0.58749    0.24143   1.00
C6       1.06484    0.59700    0.21927   1.00
C6       1.04501    0.59279    0.27846   1.00
C6       1.09578    0.60802    0.24241   1.00
C6       1.08316    0.60535    0.28005   1.00
H3       1.06497    0.59571    0.18803   1.00
H3       1.02642    0.58756    0.30300   1.00
H3       1.12432    0.61702    0.23287   1.00
H3       1.09992    0.61181    0.30575   1.00
N1       0.92612    0.44199    0.25857   1.00
C6       0.92416    0.43011    0.22154   1.00
C6       0.92586    0.40991    0.28073   1.00
C6       0.92315    0.38996    0.21995   1.00
C6       0.92424    0.37711    0.25759   1.00
H3       0.92380    0.44942    0.19700   1.00
H3       0.92712    0.41016    0.31197   1.00
H3       0.92180    0.37205    0.19425   1.00
H3       0.92386    0.34718    0.26713   1.00
