data_IRMOF10_SG202_interpen_Ligand9lp_label_p.

_audit_creation_method             'generated by an auxiliary program of Tobunporous'

_symmetry_space_group_name_H-M     'P 1'
_symmetry_Int_Tables_number        1
_symmetry_cell_setting             triclinic

_cell_length_a                    34.2800
_cell_length_b                    34.2800
_cell_length_c                    34.2800
_cell_angle_alpha                 90.0000
_cell_angle_beta                  90.0000
_cell_angle_gamma                 90.0000

loop_
_atom_site_label
_atom_site_fract_x
_atom_site_fract_y
_atom_site_fract_z
_atom_site_occupancy
O1       0.75000    0.75000    0.75000   1.00
Zn1      0.71720    0.78280    0.78280   1.00
Zn1      0.78280    0.71720    0.78280   1.00
Zn1      0.78280    0.78280    0.71720   1.00
Zn1      0.71720    0.71720    0.71720   1.00
O2       0.72650    0.77350    0.83820   1.00
O2       0.72650    0.83820    0.77350   1.00
O2       0.66180    0.77350    0.77350   1.00
O2       0.77350    0.72650    0.83820   1.00
O2       0.83820    0.72650    0.77350   1.00
O2       0.77350    0.66180    0.77350   1.00
O2       0.77350    0.83820    0.72650   1.00
O2       0.83820    0.77350    0.72650   1.00
O2       0.77350    0.77350    0.66180   1.00
O2       0.66180    0.72650    0.72650   1.00
O2       0.72650    0.66180    0.72650   1.00
O2       0.72650    0.72650    0.66180   1.00
C1       0.75000    0.75000    0.85520   1.00
C1       0.75000    0.85520    0.75000   1.00
C1       0.64480    0.75000    0.75000   1.00
C1       0.85520    0.75000    0.75000   1.00
C1       0.75000    0.64480    0.75000   1.00
C1       0.75000    0.75000    0.64480   1.00
O1       0.25000    0.25000    0.75000   1.00
Zn1      0.21720    0.28280    0.78280   1.00
Zn1      0.28280    0.21720    0.78280   1.00
Zn1      0.28280    0.28280    0.71720   1.00
Zn1      0.21720    0.21720    0.71720   1.00
O2       0.22650    0.27350    0.83820   1.00
O2       0.22650    0.33820    0.77350   1.00
O2       0.16180    0.27350    0.77350   1.00
O2       0.27350    0.22650    0.83820   1.00
O2       0.33820    0.22650    0.77350   1.00
O2       0.27350    0.16180    0.77350   1.00
O2       0.27350    0.33820    0.72650   1.00
O2       0.33820    0.27350    0.72650   1.00
O2       0.27350    0.27350    0.66180   1.00
O2       0.16180    0.22650    0.72650   1.00
O2       0.22650    0.16180    0.72650   1.00
O2       0.22650    0.22650    0.66180   1.00
C1       0.25000    0.25000    0.85520   1.00
C1       0.25000    0.35520    0.75000   1.00
C1       0.14480    0.25000    0.75000   1.00
C1       0.35520    0.25000    0.75000   1.00
C1       0.25000    0.14480    0.75000   1.00
C1       0.25000    0.25000    0.64480   1.00
O1       0.25000    0.75000    0.25000   1.00
Zn1      0.21720    0.78280    0.28280   1.00
Zn1      0.28280    0.71720    0.28280   1.00
Zn1      0.28280    0.78280    0.21720   1.00
Zn1      0.21720    0.71720    0.21720   1.00
O2       0.22650    0.77350    0.33820   1.00
O2       0.22650    0.83820    0.27350   1.00
O2       0.16180    0.77350    0.27350   1.00
O2       0.27350    0.72650    0.33820   1.00
O2       0.33820    0.72650    0.27350   1.00
O2       0.27350    0.66180    0.27350   1.00
O2       0.27350    0.83820    0.22650   1.00
O2       0.33820    0.77350    0.22650   1.00
O2       0.27350    0.77350    0.16180   1.00
O2       0.16180    0.72650    0.22650   1.00
O2       0.22650    0.66180    0.22650   1.00
O2       0.22650    0.72650    0.16180   1.00
C1       0.25000    0.75000    0.35520   1.00
C1       0.25000    0.85520    0.25000   1.00
C1       0.14480    0.75000    0.25000   1.00
C1       0.35520    0.75000    0.25000   1.00
C1       0.25000    0.64480    0.25000   1.00
C1       0.25000    0.75000    0.14480   1.00
O1       0.75000    0.25000    0.25000   1.00
Zn1      0.71720    0.28280    0.28280   1.00
Zn1      0.78280    0.21720    0.28280   1.00
Zn1      0.78280    0.28280    0.21720   1.00
Zn1      0.71720    0.21720    0.21720   1.00
O2       0.72650    0.27350    0.33820   1.00
O2       0.72650    0.33820    0.27350   1.00
O2       0.66180    0.27350    0.27350   1.00
O2       0.77350    0.22650    0.33820   1.00
O2       0.83820    0.22650    0.27350   1.00
O2       0.77350    0.16180    0.27350   1.00
O2       0.77350    0.33820    0.22650   1.00
O2       0.83820    0.27350    0.22650   1.00
O2       0.77350    0.27350    0.16180   1.00
O2       0.66180    0.22650    0.22650   1.00
O2       0.72650    0.16180    0.22650   1.00
O2       0.72650    0.22650    0.16180   1.00
C1       0.75000    0.25000    0.35520   1.00
C1       0.75000    0.35520    0.25000   1.00
C1       0.64480    0.25000    0.25000   1.00
C1       0.85520    0.25000    0.25000   1.00
C1       0.75000    0.14480    0.25000   1.00
C1       0.75000    0.25000    0.14480   1.00
O1       0.25000    0.25000    0.25000   1.00
Zn1      0.28280    0.21720    0.21720   1.00
Zn1      0.21720    0.28280    0.21720   1.00
Zn1      0.21720    0.21720    0.28280   1.00
Zn1      0.28280    0.28280    0.28280   1.00
O2       0.27350    0.22650    0.16180   1.00
O2       0.27350    0.16180    0.22650   1.00
O2       0.33820    0.22650    0.22650   1.00
O2       0.22650    0.27350    0.16180   1.00
O2       0.16180    0.27350    0.22650   1.00
O2       0.22650    0.33820    0.22650   1.00
O2       0.22650    0.16180    0.27350   1.00
O2       0.16180    0.22650    0.27350   1.00
O2       0.22650    0.22650    0.33820   1.00
O2       0.33820    0.27350    0.27350   1.00
O2       0.27350    0.33820    0.27350   1.00
O2       0.27350    0.27350    0.33820   1.00
C1       0.25000    0.25000    0.14480   1.00
C1       0.25000    0.14480    0.25000   1.00
C1       0.35520    0.25000    0.25000   1.00
C1       0.14480    0.25000    0.25000   1.00
C1       0.25000    0.35520    0.25000   1.00
C1       0.25000    0.25000    0.35520   1.00
O1       0.75000    0.75000    0.25000   1.00
Zn1      0.78280    0.71720    0.21720   1.00
Zn1      0.71720    0.78280    0.21720   1.00
Zn1      0.71720    0.71720    0.28280   1.00
Zn1      0.78280    0.78280    0.28280   1.00
O2       0.77350    0.72650    0.16180   1.00
O2       0.77350    0.66180    0.22650   1.00
O2       0.83820    0.72650    0.22650   1.00
O2       0.72650    0.77350    0.16180   1.00
O2       0.66180    0.77350    0.22650   1.00
O2       0.72650    0.83820    0.22650   1.00
O2       0.72650    0.66180    0.27350   1.00
O2       0.66180    0.72650    0.27350   1.00
O2       0.72650    0.72650    0.33820   1.00
O2       0.83820    0.77350    0.27350   1.00
O2       0.77350    0.83820    0.27350   1.00
O2       0.77350    0.77350    0.33820   1.00
C1       0.75000    0.75000    0.14480   1.00
C1       0.75000    0.64480    0.25000   1.00
C1       0.85520    0.75000    0.25000   1.00
C1       0.64480    0.75000    0.25000   1.00
C1       0.75000    0.85520    0.25000   1.00
C1       0.75000    0.75000    0.35520   1.00
O1       0.75000    0.25000    0.75000   1.00
Zn1      0.78280    0.21720    0.71720   1.00
Zn1      0.71720    0.28280    0.71720   1.00
Zn1      0.71720    0.21720    0.78280   1.00
Zn1      0.78280    0.28280    0.78280   1.00
O2       0.77350    0.22650    0.66180   1.00
O2       0.77350    0.16180    0.72650   1.00
O2       0.83820    0.22650    0.72650   1.00
O2       0.72650    0.27350    0.66180   1.00
O2       0.66180    0.27350    0.72650   1.00
O2       0.72650    0.33820    0.72650   1.00
O2       0.72650    0.16180    0.77350   1.00
O2       0.66180    0.22650    0.77350   1.00
O2       0.72650    0.22650    0.83820   1.00
O2       0.83820    0.27350    0.77350   1.00
O2       0.77350    0.33820    0.77350   1.00
O2       0.77350    0.27350    0.83820   1.00
C1       0.75000    0.25000    0.64480   1.00
C1       0.75000    0.14480    0.75000   1.00
C1       0.85520    0.25000    0.75000   1.00
C1       0.64480    0.25000    0.75000   1.00
C1       0.75000    0.35520    0.75000   1.00
C1       0.75000    0.25000    0.85520   1.00
O1       0.25000    0.75000    0.75000   1.00
Zn1      0.28280    0.71720    0.71720   1.00
Zn1      0.21720    0.78280    0.71720   1.00
Zn1      0.21720    0.71720    0.78280   1.00
Zn1      0.28280    0.78280    0.78280   1.00
O2       0.27350    0.72650    0.66180   1.00
O2       0.27350    0.66180    0.72650   1.00
O2       0.33820    0.72650    0.72650   1.00
O2       0.22650    0.77350    0.66180   1.00
O2       0.16180    0.77350    0.72650   1.00
O2       0.22650    0.83820    0.72650   1.00
O2       0.22650    0.66180    0.77350   1.00
O2       0.16180    0.72650    0.77350   1.00
O2       0.22650    0.72650    0.83820   1.00
O2       0.33820    0.77350    0.77350   1.00
O2       0.27350    0.83820    0.77350   1.00
O2       0.27350    0.77350    0.83820   1.00
C1       0.25000    0.75000    0.64480   1.00
C1       0.25000    0.64480    0.75000   1.00
C1       0.35520    0.75000    0.75000   1.00
C1       0.14480    0.75000    0.75000   1.00
C1       0.25000    0.85520    0.75000   1.00
C1       0.25000    0.75000    0.85520   1.00
O1       1.00000    1.00000    1.00000   1.00
Zn1      0.96720    1.03280    1.03280   1.00
Zn1      1.03280    0.96720    1.03280   1.00
Zn1      1.03280    1.03280    0.96720   1.00
Zn1      0.96720    0.96720    0.96720   1.00
O2       0.97650    1.02350    1.08820   1.00
O2       0.97650    1.08820    1.02350   1.00
O2       0.91180    1.02350    1.02350   1.00
O2       1.02350    0.97650    1.08820   1.00
O2       1.08820    0.97650    1.02350   1.00
O2       1.02350    0.91180    1.02350   1.00
O2       1.02350    1.08820    0.97650   1.00
O2       1.08820    1.02350    0.97650   1.00
O2       1.02350    1.02350    0.91180   1.00
O2       0.91180    0.97650    0.97650   1.00
O2       0.97650    0.91180    0.97650   1.00
O2       0.97650    0.97650    0.91180   1.00
C1       1.00000    1.00000    1.10520   1.00
C1       1.00000    1.10520    1.00000   1.00
C1       0.89480    1.00000    1.00000   1.00
C1       1.10520    1.00000    1.00000   1.00
C1       1.00000    0.89480    1.00000   1.00
C1       1.00000    1.00000    0.89480   1.00
O1       0.50000    0.50000    1.00000   1.00
Zn1      0.46720    0.53280    1.03280   1.00
Zn1      0.53280    0.46720    1.03280   1.00
Zn1      0.53280    0.53280    0.96720   1.00
Zn1      0.46720    0.46720    0.96720   1.00
O2       0.47650    0.52350    1.08820   1.00
O2       0.47650    0.58820    1.02350   1.00
O2       0.41180    0.52350    1.02350   1.00
O2       0.52350    0.47650    1.08820   1.00
O2       0.58820    0.47650    1.02350   1.00
O2       0.52350    0.41180    1.02350   1.00
O2       0.52350    0.58820    0.97650   1.00
O2       0.58820    0.52350    0.97650   1.00
O2       0.52350    0.52350    0.91180   1.00
O2       0.41180    0.47650    0.97650   1.00
O2       0.47650    0.41180    0.97650   1.00
O2       0.47650    0.47650    0.91180   1.00
C1       0.50000    0.50000    1.10520   1.00
C1       0.50000    0.60520    1.00000   1.00
C1       0.39480    0.50000    1.00000   1.00
C1       0.60520    0.50000    1.00000   1.00
C1       0.50000    0.39480    1.00000   1.00
C1       0.50000    0.50000    0.89480   1.00
O1       0.50000    1.00000    0.50000   1.00
Zn1      0.46720    1.03280    0.53280   1.00
Zn1      0.53280    0.96720    0.53280   1.00
Zn1      0.53280    1.03280    0.46720   1.00
Zn1      0.46720    0.96720    0.46720   1.00
O2       0.47650    1.02350    0.58820   1.00
O2       0.47650    1.08820    0.52350   1.00
O2       0.41180    1.02350    0.52350   1.00
O2       0.52350    0.97650    0.58820   1.00
O2       0.58820    0.97650    0.52350   1.00
O2       0.52350    0.91180    0.52350   1.00
O2       0.52350    1.08820    0.47650   1.00
O2       0.58820    1.02350    0.47650   1.00
O2       0.52350    1.02350    0.41180   1.00
O2       0.41180    0.97650    0.47650   1.00
O2       0.47650    0.91180    0.47650   1.00
O2       0.47650    0.97650    0.41180   1.00
C1       0.50000    1.00000    0.60520   1.00
C1       0.50000    1.10520    0.50000   1.00
C1       0.39480    1.00000    0.50000   1.00
C1       0.60520    1.00000    0.50000   1.00
C1       0.50000    0.89480    0.50000   1.00
C1       0.50000    1.00000    0.39480   1.00
O1       1.00000    0.50000    0.50000   1.00
Zn1      0.96720    0.53280    0.53280   1.00
Zn1      1.03280    0.46720    0.53280   1.00
Zn1      1.03280    0.53280    0.46720   1.00
Zn1      0.96720    0.46720    0.46720   1.00
O2       0.97650    0.52350    0.58820   1.00
O2       0.97650    0.58820    0.52350   1.00
O2       0.91180    0.52350    0.52350   1.00
O2       1.02350    0.47650    0.58820   1.00
O2       1.08820    0.47650    0.52350   1.00
O2       1.02350    0.41180    0.52350   1.00
O2       1.02350    0.58820    0.47650   1.00
O2       1.08820    0.52350    0.47650   1.00
O2       1.02350    0.52350    0.41180   1.00
O2       0.91180    0.47650    0.47650   1.00
O2       0.97650    0.41180    0.47650   1.00
O2       0.97650    0.47650    0.41180   1.00
C1       1.00000    0.50000    0.60520   1.00
C1       1.00000    0.60520    0.50000   1.00
C1       0.89480    0.50000    0.50000   1.00
C1       1.10520    0.50000    0.50000   1.00
C1       1.00000    0.39480    0.50000   1.00
C1       1.00000    0.50000    0.39480   1.00
O1       0.50000    0.50000    0.50000   1.00
Zn1      0.53280    0.46720    0.46720   1.00
Zn1      0.46720    0.53280    0.46720   1.00
Zn1      0.46720    0.46720    0.53280   1.00
Zn1      0.53280    0.53280    0.53280   1.00
O2       0.52350    0.47650    0.41180   1.00
O2       0.52350    0.41180    0.47650   1.00
O2       0.58820    0.47650    0.47650   1.00
O2       0.47650    0.52350    0.41180   1.00
O2       0.41180    0.52350    0.47650   1.00
O2       0.47650    0.58820    0.47650   1.00
O2       0.47650    0.41180    0.52350   1.00
O2       0.41180    0.47650    0.52350   1.00
O2       0.47650    0.47650    0.58820   1.00
O2       0.58820    0.52350    0.52350   1.00
O2       0.52350    0.58820    0.52350   1.00
O2       0.52350    0.52350    0.58820   1.00
C1       0.50000    0.50000    0.39480   1.00
C1       0.50000    0.39480    0.50000   1.00
C1       0.60520    0.50000    0.50000   1.00
C1       0.39480    0.50000    0.50000   1.00
C1       0.50000    0.60520    0.50000   1.00
C1       0.50000    0.50000    0.60520   1.00
O1       1.00000    1.00000    0.50000   1.00
Zn1      1.03280    0.96720    0.46720   1.00
Zn1      0.96720    1.03280    0.46720   1.00
Zn1      0.96720    0.96720    0.53280   1.00
Zn1      1.03280    1.03280    0.53280   1.00
O2       1.02350    0.97650    0.41180   1.00
O2       1.02350    0.91180    0.47650   1.00
O2       1.08820    0.97650    0.47650   1.00
O2       0.97650    1.02350    0.41180   1.00
O2       0.91180    1.02350    0.47650   1.00
O2       0.97650    1.08820    0.47650   1.00
O2       0.97650    0.91180    0.52350   1.00
O2       0.91180    0.97650    0.52350   1.00
O2       0.97650    0.97650    0.58820   1.00
O2       1.08820    1.02350    0.52350   1.00
O2       1.02350    1.08820    0.52350   1.00
O2       1.02350    1.02350    0.58820   1.00
C1       1.00000    1.00000    0.39480   1.00
C1       1.00000    0.89480    0.50000   1.00
C1       1.10520    1.00000    0.50000   1.00
C1       0.89480    1.00000    0.50000   1.00
C1       1.00000    1.10520    0.50000   1.00
C1       1.00000    1.00000    0.60520   1.00
O1       1.00000    0.50000    1.00000   1.00
Zn1      1.03280    0.46720    0.96720   1.00
Zn1      0.96720    0.53280    0.96720   1.00
Zn1      0.96720    0.46720    1.03280   1.00
Zn1      1.03280    0.53280    1.03280   1.00
O2       1.02350    0.47650    0.91180   1.00
O2       1.02350    0.41180    0.97650   1.00
O2       1.08820    0.47650    0.97650   1.00
O2       0.97650    0.52350    0.91180   1.00
O2       0.91180    0.52350    0.97650   1.00
O2       0.97650    0.58820    0.97650   1.00
O2       0.97650    0.41180    1.02350   1.00
O2       0.91180    0.47650    1.02350   1.00
O2       0.97650    0.47650    1.08820   1.00
O2       1.08820    0.52350    1.02350   1.00
O2       1.02350    0.58820    1.02350   1.00
O2       1.02350    0.52350    1.08820   1.00
C1       1.00000    0.50000    0.89480   1.00
C1       1.00000    0.39480    1.00000   1.00
C1       1.10520    0.50000    1.00000   1.00
C1       0.89480    0.50000    1.00000   1.00
C1       1.00000    0.60520    1.00000   1.00
C1       1.00000    0.50000    1.10520   1.00
O1       0.50000    1.00000    1.00000   1.00
Zn1      0.53280    0.96720    0.96720   1.00
Zn1      0.46720    1.03280    0.96720   1.00
Zn1      0.46720    0.96720    1.03280   1.00
Zn1      0.53280    1.03280    1.03280   1.00
O2       0.52350    0.97650    0.91180   1.00
O2       0.52350    0.91180    0.97650   1.00
O2       0.58820    0.97650    0.97650   1.00
O2       0.47650    1.02350    0.91180   1.00
O2       0.41180    1.02350    0.97650   1.00
O2       0.47650    1.08820    0.97650   1.00
O2       0.47650    0.91180    1.02350   1.00
O2       0.41180    0.97650    1.02350   1.00
O2       0.47650    0.97650    1.08820   1.00
O2       0.58820    1.02350    1.02350   1.00
O2       0.52350    1.08820    1.02350   1.00
O2       0.52350    1.02350    1.08820   1.00
C1       0.50000    1.00000    0.89480   1.00
C1       0.50000    0.89480    1.00000   1.00
C1       0.60520    1.00000    1.00000   1.00
C1       0.39480    1.00000    1.00000   1.00
C1       0.50000    1.10520    1.00000   1.00
C1       0.50000    1.00000    1.10520   1.00
C4       0.74950    0.74940    0.97917   1.00
C4       0.75050    0.75060    1.02083   1.00
C3       0.71565    0.73790    0.95846   1.00
C3       0.71847    0.76394    1.04321   1.00
C3       0.78216    0.76062    0.95643   1.00
C3       0.78352    0.73744    1.04187   1.00
C2       0.74715    0.74890    0.89487   1.00
C2       0.75253    0.75107    1.10514   1.00
C3       0.71459    0.73763    0.91715   1.00
C3       0.71957    0.76420    1.08449   1.00
C3       0.78093    0.76033    0.91514   1.00
C3a      0.78474    0.73765    1.08328   1.00
H1       0.68989    0.72868    0.97425   1.00
H1       0.69254    0.77471    1.02875   1.00
H1       0.68818    0.72856    0.90240   1.00
H1       0.69452    0.77481    1.10056   1.00
H1       0.80644    0.76931    0.89882   1.00
C5       0.82072    0.72301    1.10380   1.00
H1       0.80870    0.72661    1.02622   1.00
H1       0.80864    0.77046    0.97059   1.00
H2       0.81765    0.72563    1.13599   1.00
H2       0.82438    0.69150    1.09705   1.00
N1       0.85511    0.74497    1.09125   1.00
C6       0.86114    0.78345    1.09644   1.00
C6       0.88666    0.73043    1.07288   1.00
C6       0.89686    0.79371    1.08102   1.00
C6       0.91309    0.75999    1.06604   1.00
H3       0.84071    0.80306    1.11049   1.00
H3       0.89040    0.70011    1.06484   1.00
H3       0.90966    0.82255    1.08076   1.00
H3       0.94110    0.75726    1.05180   1.00
C4       0.74940    0.97917    0.74950   1.00
C4       0.75060    1.02083    0.75050   1.00
C3       0.73790    0.95846    0.71565   1.00
C3       0.76394    1.04321    0.71847   1.00
C3       0.76062    0.95643    0.78216   1.00
C3       0.73744    1.04187    0.78352   1.00
C2       0.74890    0.89487    0.74715   1.00
C2       0.75107    1.10514    0.75253   1.00
C3       0.73763    0.91715    0.71459   1.00
C3       0.76420    1.08449    0.71957   1.00
C3       0.76033    0.91514    0.78093   1.00
C3a      0.73765    1.08328    0.78474   1.00
H1       0.72868    0.97425    0.68989   1.00
H1       0.77471    1.02875    0.69254   1.00
H1       0.72856    0.90240    0.68818   1.00
H1       0.77481    1.10056    0.69452   1.00
H1       0.76931    0.89882    0.80644   1.00
C5       0.72301    1.10380    0.82072   1.00
H1       0.72661    1.02622    0.80870   1.00
H1       0.77046    0.97059    0.80864   1.00
H2       0.72563    1.13599    0.81765   1.00
H2       0.69150    1.09705    0.82438   1.00
N1       0.74497    1.09125    0.85511   1.00
C6       0.78345    1.09644    0.86114   1.00
C6       0.73043    1.07288    0.88666   1.00
C6       0.79371    1.08102    0.89686   1.00
C6       0.75999    1.06604    0.91309   1.00
H3       0.80306    1.11049    0.84071   1.00
H3       0.70011    1.06484    0.89040   1.00
H3       0.82255    1.08076    0.90966   1.00
H3       0.75726    1.05180    0.94110   1.00
C4       0.52083    0.74950    0.75060   1.00
C4       0.47917    0.75050    0.74940   1.00
C3       0.54154    0.71565    0.76210   1.00
C3       0.45679    0.71847    0.73606   1.00
C3       0.54357    0.78216    0.73938   1.00
C3       0.45813    0.78352    0.76256   1.00
C2       0.60513    0.74715    0.75110   1.00
C2       0.39486    0.75253    0.74893   1.00
C3       0.58285    0.71459    0.76237   1.00
C3       0.41551    0.71957    0.73580   1.00
C3       0.58486    0.78093    0.73967   1.00
C3a      0.41672    0.78474    0.76235   1.00
H1       0.52575    0.68989    0.77132   1.00
H1       0.47125    0.69254    0.72529   1.00
H1       0.59760    0.68818    0.77144   1.00
H1       0.39944    0.69452    0.72519   1.00
H1       0.60118    0.80644    0.73069   1.00
C5       0.39620    0.82072    0.77699   1.00
H1       0.47378    0.80870    0.77339   1.00
H1       0.52941    0.80864    0.72954   1.00
H2       0.36401    0.81765    0.77437   1.00
H2       0.40295    0.82438    0.80850   1.00
N1       0.40875    0.85511    0.75503   1.00
C6       0.40356    0.86114    0.71655   1.00
C6       0.42712    0.88666    0.76957   1.00
C6       0.41898    0.89686    0.70629   1.00
C6       0.43396    0.91309    0.74001   1.00
H3       0.38951    0.84071    0.69694   1.00
H3       0.43516    0.89040    0.79989   1.00
H3       0.41924    0.90966    0.67745   1.00
H3       0.44820    0.94110    0.74274   1.00
C4       0.97917    0.74950    0.74940   1.00
C4       1.02083    0.75050    0.75060   1.00
C3       0.95846    0.71565    0.73790   1.00
C3       1.04321    0.71847    0.76394   1.00
C3       0.95643    0.78216    0.76062   1.00
C3       1.04187    0.78352    0.73744   1.00
C2       0.89487    0.74715    0.74890   1.00
C2       1.10514    0.75253    0.75107   1.00
C3       0.91715    0.71459    0.73763   1.00
C3       1.08449    0.71957    0.76420   1.00
C3       0.91514    0.78093    0.76033   1.00
C3a      1.08328    0.78474    0.73765   1.00
H1       0.97425    0.68989    0.72868   1.00
H1       1.02875    0.69254    0.77471   1.00
H1       0.90240    0.68818    0.72856   1.00
H1       1.10056    0.69452    0.77481   1.00
H1       0.89882    0.80644    0.76931   1.00
C5       1.10380    0.82072    0.72301   1.00
H1       1.02622    0.80870    0.72661   1.00
H1       0.97059    0.80864    0.77046   1.00
H2       1.13599    0.81765    0.72563   1.00
H2       1.09705    0.82438    0.69150   1.00
N1       1.09125    0.85511    0.74497   1.00
C6       1.09644    0.86114    0.78345   1.00
C6       1.07288    0.88666    0.73043   1.00
C6       1.08102    0.89686    0.79371   1.00
C6       1.06604    0.91309    0.75999   1.00
H3       1.11049    0.84071    0.80306   1.00
H3       1.06484    0.89040    0.70011   1.00
H3       1.08076    0.90966    0.82255   1.00
H3       1.05180    0.94110    0.75726   1.00
C4       0.75060    0.52083    0.74950   1.00
C4       0.74940    0.47917    0.75050   1.00
C3       0.76210    0.54154    0.71565   1.00
C3       0.73606    0.45679    0.71847   1.00
C3       0.73938    0.54357    0.78216   1.00
C3       0.76256    0.45813    0.78352   1.00
C2       0.75110    0.60513    0.74715   1.00
C2       0.74893    0.39486    0.75253   1.00
C3       0.76237    0.58285    0.71459   1.00
C3       0.73580    0.41551    0.71957   1.00
C3       0.73967    0.58486    0.78093   1.00
C3a      0.76235    0.41672    0.78474   1.00
H1       0.77132    0.52575    0.68989   1.00
H1       0.72529    0.47125    0.69254   1.00
H1       0.77144    0.59760    0.68818   1.00
H1       0.72519    0.39944    0.69452   1.00
H1       0.73069    0.60118    0.80644   1.00
C5       0.77699    0.39620    0.82072   1.00
H1       0.77339    0.47378    0.80870   1.00
H1       0.72954    0.52941    0.80864   1.00
H2       0.77437    0.36401    0.81765   1.00
H2       0.80850    0.40295    0.82438   1.00
N1       0.75503    0.40875    0.85511   1.00
C6       0.71655    0.40356    0.86114   1.00
C6       0.76957    0.42712    0.88666   1.00
C6       0.70629    0.41898    0.89686   1.00
C6       0.74001    0.43396    0.91309   1.00
H3       0.69694    0.38951    0.84071   1.00
H3       0.79989    0.43516    0.89040   1.00
H3       0.67745    0.41924    0.90966   1.00
H3       0.74274    0.44820    0.94110   1.00
C4       0.74950    0.75060    0.52083   1.00
C4       0.75050    0.74940    0.47917   1.00
C3       0.71565    0.76210    0.54154   1.00
C3       0.71847    0.73606    0.45679   1.00
C3       0.78216    0.73938    0.54357   1.00
C3       0.78352    0.76256    0.45813   1.00
C2       0.74715    0.75110    0.60513   1.00
C2       0.75253    0.74893    0.39486   1.00
C3       0.71459    0.76237    0.58285   1.00
C3       0.71957    0.73580    0.41551   1.00
C3       0.78093    0.73967    0.58486   1.00
C3a      0.78474    0.76235    0.41672   1.00
H1       0.68989    0.77132    0.52575   1.00
H1       0.69254    0.72529    0.47125   1.00
H1       0.68818    0.77144    0.59760   1.00
H1       0.69452    0.72519    0.39944   1.00
H1       0.80644    0.73069    0.60118   1.00
C5       0.82072    0.77699    0.39620   1.00
H1       0.80870    0.77339    0.47378   1.00
H1       0.80864    0.72954    0.52941   1.00
H2       0.81765    0.77437    0.36401   1.00
H2       0.82438    0.80850    0.40295   1.00
N1       0.85511    0.75503    0.40875   1.00
C6       0.86114    0.71655    0.40356   1.00
C6       0.88666    0.76957    0.42712   1.00
C6       0.89686    0.70629    0.41898   1.00
C6       0.91309    0.74001    0.43396   1.00
H3       0.84071    0.69694    0.38951   1.00
H3       0.89040    0.79989    0.43516   1.00
H3       0.90966    0.67745    0.41924   1.00
H3       0.94110    0.74274    0.44820   1.00
C4       0.24950    0.24940    0.97917   1.00
C4       0.25050    0.25060    1.02083   1.00
C3       0.21565    0.23790    0.95846   1.00
C3       0.21847    0.26394    1.04321   1.00
C3       0.28216    0.26062    0.95643   1.00
C3       0.28352    0.23744    1.04187   1.00
C2       0.24715    0.24890    0.89487   1.00
C2       0.25253    0.25107    1.10514   1.00
C3       0.21459    0.23763    0.91715   1.00
C3       0.21957    0.26420    1.08449   1.00
C3       0.28093    0.26033    0.91514   1.00
C3a      0.28474    0.23765    1.08328   1.00
H1       0.18989    0.22868    0.97425   1.00
H1       0.19254    0.27471    1.02875   1.00
H1       0.18818    0.22856    0.90240   1.00
H1       0.19452    0.27481    1.10056   1.00
H1       0.30644    0.26931    0.89882   1.00
C5       0.32072    0.22301    1.10380   1.00
H1       0.30870    0.22661    1.02622   1.00
H1       0.30864    0.27046    0.97059   1.00
H2       0.31765    0.22563    1.13599   1.00
H2       0.32438    0.19150    1.09705   1.00
N1       0.35511    0.24497    1.09125   1.00
C6       0.36114    0.28345    1.09644   1.00
C6       0.38666    0.23043    1.07288   1.00
C6       0.39686    0.29371    1.08102   1.00
C6       0.41309    0.25999    1.06604   1.00
H3       0.34071    0.30306    1.11049   1.00
H3       0.39040    0.20011    1.06484   1.00
H3       0.40966    0.32255    1.08076   1.00
H3       0.44110    0.25726    1.05180   1.00
C4       0.24940    0.47917    0.74950   1.00
C4       0.25060    0.52083    0.75050   1.00
C3       0.23790    0.45846    0.71565   1.00
C3       0.26394    0.54321    0.71847   1.00
C3       0.26062    0.45643    0.78216   1.00
C3       0.23744    0.54187    0.78352   1.00
C2       0.24890    0.39487    0.74715   1.00
C2       0.25107    0.60514    0.75253   1.00
C3       0.23763    0.41715    0.71459   1.00
C3       0.26420    0.58449    0.71957   1.00
C3       0.26033    0.41514    0.78093   1.00
C3a      0.23765    0.58328    0.78474   1.00
H1       0.22868    0.47425    0.68989   1.00
H1       0.27471    0.52875    0.69254   1.00
H1       0.22856    0.40240    0.68818   1.00
H1       0.27481    0.60056    0.69452   1.00
H1       0.26931    0.39882    0.80644   1.00
C5       0.22301    0.60380    0.82072   1.00
H1       0.22661    0.52622    0.80870   1.00
H1       0.27046    0.47059    0.80864   1.00
H2       0.22563    0.63599    0.81765   1.00
H2       0.19150    0.59705    0.82438   1.00
N1       0.24497    0.59125    0.85511   1.00
C6       0.28345    0.59644    0.86114   1.00
C6       0.23043    0.57288    0.88666   1.00
C6       0.29371    0.58102    0.89686   1.00
C6       0.25999    0.56604    0.91309   1.00
H3       0.30306    0.61049    0.84071   1.00
H3       0.20011    0.56484    0.89040   1.00
H3       0.32255    0.58076    0.90966   1.00
H3       0.25726    0.55180    0.94110   1.00
C4       0.02083    0.24950    0.75060   1.00
C4       -0.02083   0.25050    0.74940   1.00
C3       0.04154    0.21565    0.76210   1.00
C3       -0.04321   0.21847    0.73606   1.00
C3       0.04357    0.28216    0.73938   1.00
C3       -0.04187   0.28352    0.76256   1.00
C2       0.10513    0.24715    0.75110   1.00
C2       -0.10514   0.25253    0.74893   1.00
C3       0.08285    0.21459    0.76237   1.00
C3       -0.08449   0.21957    0.73580   1.00
C3       0.08486    0.28093    0.73967   1.00
C3a      -0.08328   0.28474    0.76235   1.00
H1       0.02575    0.18989    0.77132   1.00
H1       -0.02875   0.19254    0.72529   1.00
H1       0.09760    0.18818    0.77144   1.00
H1       -0.10056   0.19452    0.72519   1.00
H1       0.10118    0.30644    0.73069   1.00
C5       -0.10380   0.32072    0.77699   1.00
H1       -0.02622   0.30870    0.77339   1.00
H1       0.02941    0.30864    0.72954   1.00
H2       -0.13599   0.31765    0.77437   1.00
H2       -0.09705   0.32438    0.80850   1.00
N1       -0.09125   0.35511    0.75503   1.00
C6       -0.09644   0.36114    0.71655   1.00
C6       -0.07288   0.38666    0.76957   1.00
C6       -0.08102   0.39686    0.70629   1.00
C6       -0.06604   0.41309    0.74001   1.00
H3       -0.11049   0.34071    0.69694   1.00
H3       -0.06484   0.39040    0.79989   1.00
H3       -0.08076   0.40966    0.67745   1.00
H3       -0.05180   0.44110    0.74274   1.00
C4       0.47917    0.24950    0.74940   1.00
C4       0.52083    0.25050    0.75060   1.00
C3       0.45846    0.21565    0.73790   1.00
C3       0.54321    0.21847    0.76394   1.00
C3       0.45643    0.28216    0.76062   1.00
C3       0.54187    0.28352    0.73744   1.00
C2       0.39487    0.24715    0.74890   1.00
C2       0.60514    0.25253    0.75107   1.00
C3       0.41715    0.21459    0.73763   1.00
C3       0.58449    0.21957    0.76420   1.00
C3       0.41514    0.28093    0.76033   1.00
C3a      0.58328    0.28474    0.73765   1.00
H1       0.47425    0.18989    0.72868   1.00
H1       0.52875    0.19254    0.77471   1.00
H1       0.40240    0.18818    0.72856   1.00
H1       0.60056    0.19452    0.77481   1.00
H1       0.39882    0.30644    0.76931   1.00
C5       0.60380    0.32072    0.72301   1.00
H1       0.52622    0.30870    0.72661   1.00
H1       0.47059    0.30864    0.77046   1.00
H2       0.63599    0.31765    0.72563   1.00
H2       0.59705    0.32438    0.69150   1.00
N1       0.59125    0.35511    0.74497   1.00
C6       0.59644    0.36114    0.78345   1.00
C6       0.57288    0.38666    0.73043   1.00
C6       0.58102    0.39686    0.79371   1.00
C6       0.56604    0.41309    0.75999   1.00
H3       0.61049    0.34071    0.80306   1.00
H3       0.56484    0.39040    0.70011   1.00
H3       0.58076    0.40966    0.82255   1.00
H3       0.55180    0.44110    0.75726   1.00
C4       0.25060    0.02083    0.74950   1.00
C4       0.24940    -0.02083   0.75050   1.00
C3       0.26210    0.04154    0.71565   1.00
C3       0.23606    -0.04321   0.71847   1.00
C3       0.23938    0.04357    0.78216   1.00
C3       0.26256    -0.04187   0.78352   1.00
C2       0.25110    0.10513    0.74715   1.00
C2       0.24893    -0.10514   0.75253   1.00
C3       0.26237    0.08285    0.71459   1.00
C3       0.23580    -0.08449   0.71957   1.00
C3       0.23967    0.08486    0.78093   1.00
C3a      0.26235    -0.08328   0.78474   1.00
H1       0.27132    0.02575    0.68989   1.00
H1       0.22529    -0.02875   0.69254   1.00
H1       0.27144    0.09760    0.68818   1.00
H1       0.22519    -0.10056   0.69452   1.00
H1       0.23069    0.10118    0.80644   1.00
C5       0.27699    -0.10380   0.82072   1.00
H1       0.27339    -0.02622   0.80870   1.00
H1       0.22954    0.02941    0.80864   1.00
H2       0.27437    -0.13599   0.81765   1.00
H2       0.30850    -0.09705   0.82438   1.00
N1       0.25503    -0.09125   0.85511   1.00
C6       0.21655    -0.09644   0.86114   1.00
C6       0.26957    -0.07288   0.88666   1.00
C6       0.20629    -0.08102   0.89686   1.00
C6       0.24001    -0.06604   0.91309   1.00
H3       0.19694    -0.11049   0.84071   1.00
H3       0.29989    -0.06484   0.89040   1.00
H3       0.17745    -0.08076   0.90966   1.00
H3       0.24274    -0.05180   0.94110   1.00
C4       0.24950    0.25060    0.52083   1.00
C4       0.25050    0.24940    0.47917   1.00
C3       0.21565    0.26210    0.54154   1.00
C3       0.21847    0.23606    0.45679   1.00
C3       0.28216    0.23938    0.54357   1.00
C3       0.28352    0.26256    0.45813   1.00
C2       0.24715    0.25110    0.60513   1.00
C2       0.25253    0.24893    0.39486   1.00
C3       0.21459    0.26237    0.58285   1.00
C3       0.21957    0.23580    0.41551   1.00
C3       0.28093    0.23967    0.58486   1.00
C3a      0.28474    0.26235    0.41672   1.00
H1       0.18989    0.27132    0.52575   1.00
H1       0.19254    0.22529    0.47125   1.00
H1       0.18818    0.27144    0.59760   1.00
H1       0.19452    0.22519    0.39944   1.00
H1       0.30644    0.23069    0.60118   1.00
C5       0.32072    0.27699    0.39620   1.00
H1       0.30870    0.27339    0.47378   1.00
H1       0.30864    0.22954    0.52941   1.00
H2       0.31765    0.27437    0.36401   1.00
H2       0.32438    0.30850    0.40295   1.00
N1       0.35511    0.25503    0.40875   1.00
C6       0.36114    0.21655    0.40356   1.00
C6       0.38666    0.26957    0.42712   1.00
C6       0.39686    0.20629    0.41898   1.00
C6       0.41309    0.24001    0.43396   1.00
H3       0.34071    0.19694    0.38951   1.00
H3       0.39040    0.29989    0.43516   1.00
H3       0.40966    0.17745    0.41924   1.00
H3       0.44110    0.24274    0.44820   1.00
C4       0.24950    0.74940    0.47917   1.00
C4       0.25050    0.75060    0.52083   1.00
C3       0.21565    0.73790    0.45846   1.00
C3       0.21847    0.76394    0.54321   1.00
C3       0.28216    0.76062    0.45643   1.00
C3       0.28352    0.73744    0.54187   1.00
C2       0.24715    0.74890    0.39487   1.00
C2       0.25253    0.75107    0.60514   1.00
C3       0.21459    0.73763    0.41715   1.00
C3       0.21957    0.76420    0.58449   1.00
C3       0.28093    0.76033    0.41514   1.00
C3a      0.28474    0.73765    0.58328   1.00
H1       0.18989    0.72868    0.47425   1.00
H1       0.19254    0.77471    0.52875   1.00
H1       0.18818    0.72856    0.40240   1.00
H1       0.19452    0.77481    0.60056   1.00
H1       0.30644    0.76931    0.39882   1.00
C5       0.32072    0.72301    0.60380   1.00
H1       0.30870    0.72661    0.52622   1.00
H1       0.30864    0.77046    0.47059   1.00
H2       0.31765    0.72563    0.63599   1.00
H2       0.32438    0.69150    0.59705   1.00
N1       0.35511    0.74497    0.59125   1.00
C6       0.36114    0.78345    0.59644   1.00
C6       0.38666    0.73043    0.57288   1.00
C6       0.39686    0.79371    0.58102   1.00
C6       0.41309    0.75999    0.56604   1.00
H3       0.34071    0.80306    0.61049   1.00
H3       0.39040    0.70011    0.56484   1.00
H3       0.40966    0.82255    0.58076   1.00
H3       0.44110    0.75726    0.55180   1.00
C4       0.24940    0.97917    0.24950   1.00
C4       0.25060    1.02083    0.25050   1.00
C3       0.23790    0.95846    0.21565   1.00
C3       0.26394    1.04321    0.21847   1.00
C3       0.26062    0.95643    0.28216   1.00
C3       0.23744    1.04187    0.28352   1.00
C2       0.24890    0.89487    0.24715   1.00
C2       0.25107    1.10514    0.25253   1.00
C3       0.23763    0.91715    0.21459   1.00
C3       0.26420    1.08449    0.21957   1.00
C3       0.26033    0.91514    0.28093   1.00
C3a      0.23765    1.08328    0.28474   1.00
H1       0.22868    0.97425    0.18989   1.00
H1       0.27471    1.02875    0.19254   1.00
H1       0.22856    0.90240    0.18818   1.00
H1       0.27481    1.10056    0.19452   1.00
H1       0.26931    0.89882    0.30644   1.00
C5       0.22301    1.10380    0.32072   1.00
H1       0.22661    1.02622    0.30870   1.00
H1       0.27046    0.97059    0.30864   1.00
H2       0.22563    1.13599    0.31765   1.00
H2       0.19150    1.09705    0.32438   1.00
N1       0.24497    1.09125    0.35511   1.00
C6       0.28345    1.09644    0.36114   1.00
C6       0.23043    1.07288    0.38666   1.00
C6       0.29371    1.08102    0.39686   1.00
C6       0.25999    1.06604    0.41309   1.00
H3       0.30306    1.11049    0.34071   1.00
H3       0.20011    1.06484    0.39040   1.00
H3       0.32255    1.08076    0.40966   1.00
H3       0.25726    1.05180    0.44110   1.00
C4       0.02083    0.74950    0.25060   1.00
C4       -0.02083   0.75050    0.24940   1.00
C3       0.04154    0.71565    0.26210   1.00
C3       -0.04321   0.71847    0.23606   1.00
C3       0.04357    0.78216    0.23938   1.00
C3       -0.04187   0.78352    0.26256   1.00
C2       0.10513    0.74715    0.25110   1.00
C2       -0.10514   0.75253    0.24893   1.00
C3       0.08285    0.71459    0.26237   1.00
C3       -0.08449   0.71957    0.23580   1.00
C3       0.08486    0.78093    0.23967   1.00
C3a      -0.08328   0.78474    0.26235   1.00
H1       0.02575    0.68989    0.27132   1.00
H1       -0.02875   0.69254    0.22529   1.00
H1       0.09760    0.68818    0.27144   1.00
H1       -0.10056   0.69452    0.22519   1.00
H1       0.10118    0.80644    0.23069   1.00
C5       -0.10380   0.82072    0.27699   1.00
H1       -0.02622   0.80870    0.27339   1.00
H1       0.02941    0.80864    0.22954   1.00
H2       -0.13599   0.81765    0.27437   1.00
H2       -0.09705   0.82438    0.30850   1.00
N1       -0.09125   0.85511    0.25503   1.00
C6       -0.09644   0.86114    0.21655   1.00
C6       -0.07288   0.88666    0.26957   1.00
C6       -0.08102   0.89686    0.20629   1.00
C6       -0.06604   0.91309    0.24001   1.00
H3       -0.11049   0.84071    0.19694   1.00
H3       -0.06484   0.89040    0.29989   1.00
H3       -0.08076   0.90966    0.17745   1.00
H3       -0.05180   0.94110    0.24274   1.00
C4       0.47917    0.74950    0.24940   1.00
C4       0.52083    0.75050    0.25060   1.00
C3       0.45846    0.71565    0.23790   1.00
C3       0.54321    0.71847    0.26394   1.00
C3       0.45643    0.78216    0.26062   1.00
C3       0.54187    0.78352    0.23744   1.00
C2       0.39487    0.74715    0.24890   1.00
C2       0.60514    0.75253    0.25107   1.00
C3       0.41715    0.71459    0.23763   1.00
C3       0.58449    0.71957    0.26420   1.00
C3       0.41514    0.78093    0.26033   1.00
C3a      0.58328    0.78474    0.23765   1.00
H1       0.47425    0.68989    0.22868   1.00
H1       0.52875    0.69254    0.27471   1.00
H1       0.40240    0.68818    0.22856   1.00
H1       0.60056    0.69452    0.27481   1.00
H1       0.39882    0.80644    0.26931   1.00
C5       0.60380    0.82072    0.22301   1.00
H1       0.52622    0.80870    0.22661   1.00
H1       0.47059    0.80864    0.27046   1.00
H2       0.63599    0.81765    0.22563   1.00
H2       0.59705    0.82438    0.19150   1.00
N1       0.59125    0.85511    0.24497   1.00
C6       0.59644    0.86114    0.28345   1.00
C6       0.57288    0.88666    0.23043   1.00
C6       0.58102    0.89686    0.29371   1.00
C6       0.56604    0.91309    0.25999   1.00
H3       0.61049    0.84071    0.30306   1.00
H3       0.56484    0.89040    0.20011   1.00
H3       0.58076    0.90966    0.32255   1.00
H3       0.55180    0.94110    0.25726   1.00
C4       0.25060    0.52083    0.24950   1.00
C4       0.24940    0.47917    0.25050   1.00
C3       0.26210    0.54154    0.21565   1.00
C3       0.23606    0.45679    0.21847   1.00
C3       0.23938    0.54357    0.28216   1.00
C3       0.26256    0.45813    0.28352   1.00
C2       0.25110    0.60513    0.24715   1.00
C2       0.24893    0.39486    0.25253   1.00
C3       0.26237    0.58285    0.21459   1.00
C3       0.23580    0.41551    0.21957   1.00
C3       0.23967    0.58486    0.28093   1.00
C3a      0.26235    0.41672    0.28474   1.00
H1       0.27132    0.52575    0.18989   1.00
H1       0.22529    0.47125    0.19254   1.00
H1       0.27144    0.59760    0.18818   1.00
H1       0.22519    0.39944    0.19452   1.00
H1       0.23069    0.60118    0.30644   1.00
C5       0.27699    0.39620    0.32072   1.00
H1       0.27339    0.47378    0.30870   1.00
H1       0.22954    0.52941    0.30864   1.00
H2       0.27437    0.36401    0.31765   1.00
H2       0.30850    0.40295    0.32438   1.00
N1       0.25503    0.40875    0.35511   1.00
C6       0.21655    0.40356    0.36114   1.00
C6       0.26957    0.42712    0.38666   1.00
C6       0.20629    0.41898    0.39686   1.00
C6       0.24001    0.43396    0.41309   1.00
H3       0.19694    0.38951    0.34071   1.00
H3       0.29989    0.43516    0.39040   1.00
H3       0.17745    0.41924    0.40966   1.00
H3       0.24274    0.44820    0.44110   1.00
C4       0.24950    0.75060    0.02083   1.00
C4       0.25050    0.74940    -0.02083   1.00
C3       0.21565    0.76210    0.04154   1.00
C3       0.21847    0.73606    -0.04321   1.00
C3       0.28216    0.73938    0.04357   1.00
C3       0.28352    0.76256    -0.04187   1.00
C2       0.24715    0.75110    0.10513   1.00
C2       0.25253    0.74893    -0.10514   1.00
C3       0.21459    0.76237    0.08285   1.00
C3       0.21957    0.73580    -0.08449   1.00
C3       0.28093    0.73967    0.08486   1.00
C3a      0.28474    0.76235    -0.08328   1.00
H1       0.18989    0.77132    0.02575   1.00
H1       0.19254    0.72529    -0.02875   1.00
H1       0.18818    0.77144    0.09760   1.00
H1       0.19452    0.72519    -0.10056   1.00
H1       0.30644    0.73069    0.10118   1.00
C5       0.32072    0.77699    -0.10380   1.00
H1       0.30870    0.77339    -0.02622   1.00
H1       0.30864    0.72954    0.02941   1.00
H2       0.31765    0.77437    -0.13599   1.00
H2       0.32438    0.80850    -0.09705   1.00
N1       0.35511    0.75503    -0.09125   1.00
C6       0.36114    0.71655    -0.09644   1.00
C6       0.38666    0.76957    -0.07288   1.00
C6       0.39686    0.70629    -0.08102   1.00
C6       0.41309    0.74001    -0.06604   1.00
H3       0.34071    0.69694    -0.11049   1.00
H3       0.39040    0.79989    -0.06484   1.00
H3       0.40966    0.67745    -0.08076   1.00
H3       0.44110    0.74274    -0.05180   1.00
C4       0.74950    0.24940    0.47917   1.00
C4       0.75050    0.25060    0.52083   1.00
C3       0.71565    0.23790    0.45846   1.00
C3       0.71847    0.26394    0.54321   1.00
C3       0.78216    0.26062    0.45643   1.00
C3       0.78352    0.23744    0.54187   1.00
C2       0.74715    0.24890    0.39487   1.00
C2       0.75253    0.25107    0.60514   1.00
C3       0.71459    0.23763    0.41715   1.00
C3       0.71957    0.26420    0.58449   1.00
C3       0.78093    0.26033    0.41514   1.00
C3a      0.78474    0.23765    0.58328   1.00
H1       0.68989    0.22868    0.47425   1.00
H1       0.69254    0.27471    0.52875   1.00
H1       0.68818    0.22856    0.40240   1.00
H1       0.69452    0.27481    0.60056   1.00
H1       0.80644    0.26931    0.39882   1.00
C5       0.82072    0.22301    0.60380   1.00
H1       0.80870    0.22661    0.52622   1.00
H1       0.80864    0.27046    0.47059   1.00
H2       0.81765    0.22563    0.63599   1.00
H2       0.82438    0.19150    0.59705   1.00
N1       0.85511    0.24497    0.59125   1.00
C6       0.86114    0.28345    0.59644   1.00
C6       0.88666    0.23043    0.57288   1.00
C6       0.89686    0.29371    0.58102   1.00
C6       0.91309    0.25999    0.56604   1.00
H3       0.84071    0.30306    0.61049   1.00
H3       0.89040    0.20011    0.56484   1.00
H3       0.90966    0.32255    0.58076   1.00
H3       0.94110    0.25726    0.55180   1.00
C4       0.74940    0.47917    0.24950   1.00
C4       0.75060    0.52083    0.25050   1.00
C3       0.73790    0.45846    0.21565   1.00
C3       0.76394    0.54321    0.21847   1.00
C3       0.76062    0.45643    0.28216   1.00
C3       0.73744    0.54187    0.28352   1.00
C2       0.74890    0.39487    0.24715   1.00
C2       0.75107    0.60514    0.25253   1.00
C3       0.73763    0.41715    0.21459   1.00
C3       0.76420    0.58449    0.21957   1.00
C3       0.76033    0.41514    0.28093   1.00
C3a      0.73765    0.58328    0.28474   1.00
H1       0.72868    0.47425    0.18989   1.00
H1       0.77471    0.52875    0.19254   1.00
H1       0.72856    0.40240    0.18818   1.00
H1       0.77481    0.60056    0.19452   1.00
H1       0.76931    0.39882    0.30644   1.00
C5       0.72301    0.60380    0.32072   1.00
H1       0.72661    0.52622    0.30870   1.00
H1       0.77046    0.47059    0.30864   1.00
H2       0.72563    0.63599    0.31765   1.00
H2       0.69150    0.59705    0.32438   1.00
N1       0.74497    0.59125    0.35511   1.00
C6       0.78345    0.59644    0.36114   1.00
C6       0.73043    0.57288    0.38666   1.00
C6       0.79371    0.58102    0.39686   1.00
C6       0.75999    0.56604    0.41309   1.00
H3       0.80306    0.61049    0.34071   1.00
H3       0.70011    0.56484    0.39040   1.00
H3       0.82255    0.58076    0.40966   1.00
H3       0.75726    0.55180    0.44110   1.00
C4       0.52083    0.24950    0.25060   1.00
C4       0.47917    0.25050    0.24940   1.00
C3       0.54154    0.21565    0.26210   1.00
C3       0.45679    0.21847    0.23606   1.00
C3       0.54357    0.28216    0.23938   1.00
C3       0.45813    0.28352    0.26256   1.00
C2       0.60513    0.24715    0.25110   1.00
C2       0.39486    0.25253    0.24893   1.00
C3       0.58285    0.21459    0.26237   1.00
C3       0.41551    0.21957    0.23580   1.00
C3       0.58486    0.28093    0.23967   1.00
C3a      0.41672    0.28474    0.26235   1.00
H1       0.52575    0.18989    0.27132   1.00
H1       0.47125    0.19254    0.22529   1.00
H1       0.59760    0.18818    0.27144   1.00
H1       0.39944    0.19452    0.22519   1.00
H1       0.60118    0.30644    0.23069   1.00
C5       0.39620    0.32072    0.27699   1.00
H1       0.47378    0.30870    0.27339   1.00
H1       0.52941    0.30864    0.22954   1.00
H2       0.36401    0.31765    0.27437   1.00
H2       0.40295    0.32438    0.30850   1.00
N1       0.40875    0.35511    0.25503   1.00
C6       0.40356    0.36114    0.21655   1.00
C6       0.42712    0.38666    0.26957   1.00
C6       0.41898    0.39686    0.20629   1.00
C6       0.43396    0.41309    0.24001   1.00
H3       0.38951    0.34071    0.19694   1.00
H3       0.43516    0.39040    0.29989   1.00
H3       0.41924    0.40966    0.17745   1.00
H3       0.44820    0.44110    0.24274   1.00
C4       0.97917    0.24950    0.24940   1.00
C4       1.02083    0.25050    0.25060   1.00
C3       0.95846    0.21565    0.23790   1.00
C3       1.04321    0.21847    0.26394   1.00
C3       0.95643    0.28216    0.26062   1.00
C3       1.04187    0.28352    0.23744   1.00
C2       0.89487    0.24715    0.24890   1.00
C2       1.10514    0.25253    0.25107   1.00
C3       0.91715    0.21459    0.23763   1.00
C3       1.08449    0.21957    0.26420   1.00
C3       0.91514    0.28093    0.26033   1.00
C3a      1.08328    0.28474    0.23765   1.00
H1       0.97425    0.18989    0.22868   1.00
H1       1.02875    0.19254    0.27471   1.00
H1       0.90240    0.18818    0.22856   1.00
H1       1.10056    0.19452    0.27481   1.00
H1       0.89882    0.30644    0.26931   1.00
C5       1.10380    0.32072    0.22301   1.00
H1       1.02622    0.30870    0.22661   1.00
H1       0.97059    0.30864    0.27046   1.00
H2       1.13599    0.31765    0.22563   1.00
H2       1.09705    0.32438    0.19150   1.00
N1       1.09125    0.35511    0.24497   1.00
C6       1.09644    0.36114    0.28345   1.00
C6       1.07288    0.38666    0.23043   1.00
C6       1.08102    0.39686    0.29371   1.00
C6       1.06604    0.41309    0.25999   1.00
H3       1.11049    0.34071    0.30306   1.00
H3       1.06484    0.39040    0.20011   1.00
H3       1.08076    0.40966    0.32255   1.00
H3       1.05180    0.44110    0.25726   1.00
C4       0.75060    0.02083    0.24950   1.00
C4       0.74940    -0.02083   0.25050   1.00
C3       0.76210    0.04154    0.21565   1.00
C3       0.73606    -0.04321   0.21847   1.00
C3       0.73938    0.04357    0.28216   1.00
C3       0.76256    -0.04187   0.28352   1.00
C2       0.75110    0.10513    0.24715   1.00
C2       0.74893    -0.10514   0.25253   1.00
C3       0.76237    0.08285    0.21459   1.00
C3       0.73580    -0.08449   0.21957   1.00
C3       0.73967    0.08486    0.28093   1.00
C3a      0.76235    -0.08328   0.28474   1.00
H1       0.77132    0.02575    0.18989   1.00
H1       0.72529    -0.02875   0.19254   1.00
H1       0.77144    0.09760    0.18818   1.00
H1       0.72519    -0.10056   0.19452   1.00
H1       0.73069    0.10118    0.30644   1.00
C5       0.77699    -0.10380   0.32072   1.00
H1       0.77339    -0.02622   0.30870   1.00
H1       0.72954    0.02941    0.30864   1.00
H2       0.77437    -0.13599   0.31765   1.00
H2       0.80850    -0.09705   0.32438   1.00
N1       0.75503    -0.09125   0.35511   1.00
C6       0.71655    -0.09644   0.36114   1.00
C6       0.76957    -0.07288   0.38666   1.00
C6       0.70629    -0.08102   0.39686   1.00
C6       0.74001    -0.06604   0.41309   1.00
H3       0.69694    -0.11049   0.34071   1.00
H3       0.79989    -0.06484   0.39040   1.00
H3       0.67745    -0.08076   0.40966   1.00
H3       0.74274    -0.05180   0.44110   1.00
C4       0.74950    0.25060    0.02083   1.00
C4       0.75050    0.24940    -0.02083   1.00
C3       0.71565    0.26210    0.04154   1.00
C3       0.71847    0.23606    -0.04321   1.00
C3       0.78216    0.23938    0.04357   1.00
C3       0.78352    0.26256    -0.04187   1.00
C2       0.74715    0.25110    0.10513   1.00
C2       0.75253    0.24893    -0.10514   1.00
C3       0.71459    0.26237    0.08285   1.00
C3       0.71957    0.23580    -0.08449   1.00
C3       0.78093    0.23967    0.08486   1.00
C3a      0.78474    0.26235    -0.08328   1.00
H1       0.68989    0.27132    0.02575   1.00
H1       0.69254    0.22529    -0.02875   1.00
H1       0.68818    0.27144    0.09760   1.00
H1       0.69452    0.22519    -0.10056   1.00
H1       0.80644    0.23069    0.10118   1.00
C5       0.82072    0.27699    -0.10380   1.00
H1       0.80870    0.27339    -0.02622   1.00
H1       0.80864    0.22954    0.02941   1.00
H2       0.81765    0.27437    -0.13599   1.00
H2       0.82438    0.30850    -0.09705   1.00
N1       0.85511    0.25503    -0.09125   1.00
C6       0.86114    0.21655    -0.09644   1.00
C6       0.88666    0.26957    -0.07288   1.00
C6       0.89686    0.20629    -0.08102   1.00
C6       0.91309    0.24001    -0.06604   1.00
H3       0.84071    0.19694    -0.11049   1.00
H3       0.89040    0.29989    -0.06484   1.00
H3       0.90966    0.17745    -0.08076   1.00
H3       0.94110    0.24274    -0.05180   1.00
C4       0.99950    0.99940    1.22917   1.00
C4       1.00050    1.00060    1.27083   1.00
C3       0.96565    0.98790    1.20846   1.00
C3       0.96847    1.01394    1.29321   1.00
C3       1.03216    1.01062    1.20643   1.00
C3       1.03352    0.98744    1.29187   1.00
C2       0.99715    0.99890    1.14487   1.00
C2       1.00253    1.00107    1.35514   1.00
C3       0.96459    0.98763    1.16715   1.00
C3       0.96957    1.01420    1.33449   1.00
C3       1.03093    1.01033    1.16514   1.00
C3a      1.03474    0.98765    1.33328   1.00
H1       0.93989    0.97868    1.22425   1.00
H1       0.94254    1.02471    1.27875   1.00
H1       0.93818    0.97856    1.15240   1.00
H1       0.94452    1.02481    1.35056   1.00
H1       1.05644    1.01931    1.14882   1.00
C5       1.07072    0.97301    1.35380   1.00
H1       1.05870    0.97661    1.27622   1.00
H1       1.05864    1.02046    1.22059   1.00
H2       1.06765    0.97563    1.38599   1.00
H2       1.07438    0.94150    1.34705   1.00
N1       1.10511    0.99497    1.34125   1.00
C6       1.11114    1.03345    1.34644   1.00
C6       1.13666    0.98043    1.32288   1.00
C6       1.14686    1.04371    1.33102   1.00
C6       1.16309    1.00999    1.31604   1.00
H3       1.09071    1.05306    1.36049   1.00
H3       1.14040    0.95011    1.31484   1.00
H3       1.15966    1.07255    1.33076   1.00
H3       1.19110    1.00726    1.30180   1.00
C4       0.99940    1.22917    0.99950   1.00
C4       1.00060    1.27083    1.00050   1.00
C3       0.98790    1.20846    0.96565   1.00
C3       1.01394    1.29321    0.96847   1.00
C3       1.01062    1.20643    1.03216   1.00
C3       0.98744    1.29187    1.03352   1.00
C2       0.99890    1.14487    0.99715   1.00
C2       1.00107    1.35514    1.00253   1.00
C3       0.98763    1.16715    0.96459   1.00
C3       1.01420    1.33449    0.96957   1.00
C3       1.01033    1.16514    1.03093   1.00
C3a      0.98765    1.33328    1.03474   1.00
H1       0.97868    1.22425    0.93989   1.00
H1       1.02471    1.27875    0.94254   1.00
H1       0.97856    1.15240    0.93818   1.00
H1       1.02481    1.35056    0.94452   1.00
H1       1.01931    1.14882    1.05644   1.00
C5       0.97301    1.35380    1.07072   1.00
H1       0.97661    1.27622    1.05870   1.00
H1       1.02046    1.22059    1.05864   1.00
H2       0.97563    1.38599    1.06765   1.00
H2       0.94150    1.34705    1.07438   1.00
N1       0.99497    1.34125    1.10511   1.00
C6       1.03345    1.34644    1.11114   1.00
C6       0.98043    1.32288    1.13666   1.00
C6       1.04371    1.33102    1.14686   1.00
C6       1.00999    1.31604    1.16309   1.00
H3       1.05306    1.36049    1.09071   1.00
H3       0.95011    1.31484    1.14040   1.00
H3       1.07255    1.33076    1.15966   1.00
H3       1.00726    1.30180    1.19110   1.00
C4       0.77083    0.99950    1.00060   1.00
C4       0.72917    1.00050    0.99940   1.00
C3       0.79154    0.96565    1.01210   1.00
C3       0.70679    0.96847    0.98606   1.00
C3       0.79357    1.03216    0.98938   1.00
C3       0.70813    1.03352    1.01256   1.00
C2       0.85513    0.99715    1.00110   1.00
C2       0.64486    1.00253    0.99893   1.00
C3       0.83285    0.96459    1.01237   1.00
C3       0.66551    0.96957    0.98580   1.00
C3       0.83486    1.03093    0.98967   1.00
C3a      0.66672    1.03474    1.01235   1.00
H1       0.77575    0.93989    1.02132   1.00
H1       0.72125    0.94254    0.97529   1.00
H1       0.84760    0.93818    1.02144   1.00
H1       0.64944    0.94452    0.97519   1.00
H1       0.85118    1.05644    0.98069   1.00
C5       0.64620    1.07072    1.02699   1.00
H1       0.72378    1.05870    1.02339   1.00
H1       0.77941    1.05864    0.97954   1.00
H2       0.61401    1.06765    1.02437   1.00
H2       0.65295    1.07438    1.05850   1.00
N1       0.65875    1.10511    1.00503   1.00
C6       0.65356    1.11114    0.96655   1.00
C6       0.67712    1.13666    1.01957   1.00
C6       0.66898    1.14686    0.95629   1.00
C6       0.68396    1.16309    0.99001   1.00
H3       0.63951    1.09071    0.94694   1.00
H3       0.68516    1.14040    1.04989   1.00
H3       0.66924    1.15966    0.92745   1.00
H3       0.69820    1.19110    0.99274   1.00
C4       1.22917    0.99950    0.99940   1.00
C4       1.27083    1.00050    1.00060   1.00
C3       1.20846    0.96565    0.98790   1.00
C3       1.29321    0.96847    1.01394   1.00
C3       1.20643    1.03216    1.01062   1.00
C3       1.29187    1.03352    0.98744   1.00
C2       1.14487    0.99715    0.99890   1.00
C2       1.35514    1.00253    1.00107   1.00
C3       1.16715    0.96459    0.98763   1.00
C3       1.33449    0.96957    1.01420   1.00
C3       1.16514    1.03093    1.01033   1.00
C3a      1.33328    1.03474    0.98765   1.00
H1       1.22425    0.93989    0.97868   1.00
H1       1.27875    0.94254    1.02471   1.00
H1       1.15240    0.93818    0.97856   1.00
H1       1.35056    0.94452    1.02481   1.00
H1       1.14882    1.05644    1.01931   1.00
C5       1.35380    1.07072    0.97301   1.00
H1       1.27622    1.05870    0.97661   1.00
H1       1.22059    1.05864    1.02046   1.00
H2       1.38599    1.06765    0.97563   1.00
H2       1.34705    1.07438    0.94150   1.00
N1       1.34125    1.10511    0.99497   1.00
C6       1.34644    1.11114    1.03345   1.00
C6       1.32288    1.13666    0.98043   1.00
C6       1.33102    1.14686    1.04371   1.00
C6       1.31604    1.16309    1.00999   1.00
H3       1.36049    1.09071    1.05306   1.00
H3       1.31484    1.14040    0.95011   1.00
H3       1.33076    1.15966    1.07255   1.00
H3       1.30180    1.19110    1.00726   1.00
C4       1.00060    0.77083    0.99950   1.00
C4       0.99940    0.72917    1.00050   1.00
C3       1.01210    0.79154    0.96565   1.00
C3       0.98606    0.70679    0.96847   1.00
C3       0.98938    0.79357    1.03216   1.00
C3       1.01256    0.70813    1.03352   1.00
C2       1.00110    0.85513    0.99715   1.00
C2       0.99893    0.64486    1.00253   1.00
C3       1.01237    0.83285    0.96459   1.00
C3       0.98580    0.66551    0.96957   1.00
C3       0.98967    0.83486    1.03093   1.00
C3a      1.01235    0.66672    1.03474   1.00
H1       1.02132    0.77575    0.93989   1.00
H1       0.97529    0.72125    0.94254   1.00
H1       1.02144    0.84760    0.93818   1.00
H1       0.97519    0.64944    0.94452   1.00
H1       0.98069    0.85118    1.05644   1.00
C5       1.02699    0.64620    1.07072   1.00
H1       1.02339    0.72378    1.05870   1.00
H1       0.97954    0.77941    1.05864   1.00
H2       1.02437    0.61401    1.06765   1.00
H2       1.05850    0.65295    1.07438   1.00
N1       1.00503    0.65875    1.10511   1.00
C6       0.96655    0.65356    1.11114   1.00
C6       1.01957    0.67712    1.13666   1.00
C6       0.95629    0.66898    1.14686   1.00
C6       0.99001    0.68396    1.16309   1.00
H3       0.94694    0.63951    1.09071   1.00
H3       1.04989    0.68516    1.14040   1.00
H3       0.92745    0.66924    1.15966   1.00
H3       0.99274    0.69820    1.19110   1.00
C4       0.99950    1.00060    0.77083   1.00
C4       1.00050    0.99940    0.72917   1.00
C3       0.96565    1.01210    0.79154   1.00
C3       0.96847    0.98606    0.70679   1.00
C3       1.03216    0.98938    0.79357   1.00
C3       1.03352    1.01256    0.70813   1.00
C2       0.99715    1.00110    0.85513   1.00
C2       1.00253    0.99893    0.64486   1.00
C3       0.96459    1.01237    0.83285   1.00
C3       0.96957    0.98580    0.66551   1.00
C3       1.03093    0.98967    0.83486   1.00
C3a      1.03474    1.01235    0.66672   1.00
H1       0.93989    1.02132    0.77575   1.00
H1       0.94254    0.97529    0.72125   1.00
H1       0.93818    1.02144    0.84760   1.00
H1       0.94452    0.97519    0.64944   1.00
H1       1.05644    0.98069    0.85118   1.00
C5       1.07072    1.02699    0.64620   1.00
H1       1.05870    1.02339    0.72378   1.00
H1       1.05864    0.97954    0.77941   1.00
H2       1.06765    1.02437    0.61401   1.00
H2       1.07438    1.05850    0.65295   1.00
N1       1.10511    1.00503    0.65875   1.00
C6       1.11114    0.96655    0.65356   1.00
C6       1.13666    1.01957    0.67712   1.00
C6       1.14686    0.95629    0.66898   1.00
C6       1.16309    0.99001    0.68396   1.00
H3       1.09071    0.94694    0.63951   1.00
H3       1.14040    1.04989    0.68516   1.00
H3       1.15966    0.92745    0.66924   1.00
H3       1.19110    0.99274    0.69820   1.00
C4       0.49950    0.49940    1.22917   1.00
C4       0.50050    0.50060    1.27083   1.00
C3       0.46565    0.48790    1.20846   1.00
C3       0.46847    0.51394    1.29321   1.00
C3       0.53216    0.51062    1.20643   1.00
C3       0.53352    0.48744    1.29187   1.00
C2       0.49715    0.49890    1.14487   1.00
C2       0.50253    0.50107    1.35514   1.00
C3       0.46459    0.48763    1.16715   1.00
C3       0.46957    0.51420    1.33449   1.00
C3       0.53093    0.51033    1.16514   1.00
C3a      0.53474    0.48765    1.33328   1.00
H1       0.43989    0.47868    1.22425   1.00
H1       0.44254    0.52471    1.27875   1.00
H1       0.43818    0.47856    1.15240   1.00
H1       0.44452    0.52481    1.35056   1.00
H1       0.55644    0.51931    1.14882   1.00
C5       0.57072    0.47301    1.35380   1.00
H1       0.55870    0.47661    1.27622   1.00
H1       0.55864    0.52046    1.22059   1.00
H2       0.56765    0.47563    1.38599   1.00
H2       0.57438    0.44150    1.34705   1.00
N1       0.60511    0.49497    1.34125   1.00
C6       0.61114    0.53345    1.34644   1.00
C6       0.63666    0.48043    1.32288   1.00
C6       0.64686    0.54371    1.33102   1.00
C6       0.66309    0.50999    1.31604   1.00
H3       0.59071    0.55306    1.36049   1.00
H3       0.64040    0.45011    1.31484   1.00
H3       0.65966    0.57255    1.33076   1.00
H3       0.69110    0.50726    1.30180   1.00
C4       0.49940    0.72917    0.99950   1.00
C4       0.50060    0.77083    1.00050   1.00
C3       0.48790    0.70846    0.96565   1.00
C3       0.51394    0.79321    0.96847   1.00
C3       0.51062    0.70643    1.03216   1.00
C3       0.48744    0.79187    1.03352   1.00
C2       0.49890    0.64487    0.99715   1.00
C2       0.50107    0.85514    1.00253   1.00
C3       0.48763    0.66715    0.96459   1.00
C3       0.51420    0.83449    0.96957   1.00
C3       0.51033    0.66514    1.03093   1.00
C3a      0.48765    0.83328    1.03474   1.00
H1       0.47868    0.72425    0.93989   1.00
H1       0.52471    0.77875    0.94254   1.00
H1       0.47856    0.65240    0.93818   1.00
H1       0.52481    0.85056    0.94452   1.00
H1       0.51931    0.64882    1.05644   1.00
C5       0.47301    0.85380    1.07072   1.00
H1       0.47661    0.77622    1.05870   1.00
H1       0.52046    0.72059    1.05864   1.00
H2       0.47563    0.88599    1.06765   1.00
H2       0.44150    0.84705    1.07438   1.00
N1       0.49497    0.84125    1.10511   1.00
C6       0.53345    0.84644    1.11114   1.00
C6       0.48043    0.82288    1.13666   1.00
C6       0.54371    0.83102    1.14686   1.00
C6       0.50999    0.81604    1.16309   1.00
H3       0.55306    0.86049    1.09071   1.00
H3       0.45011    0.81484    1.14040   1.00
H3       0.57255    0.83076    1.15966   1.00
H3       0.50726    0.80180    1.19110   1.00
C4       0.27083    0.49950    1.00060   1.00
C4       0.22917    0.50050    0.99940   1.00
C3       0.29154    0.46565    1.01210   1.00
C3       0.20679    0.46847    0.98606   1.00
C3       0.29357    0.53216    0.98938   1.00
C3       0.20813    0.53352    1.01256   1.00
C2       0.35513    0.49715    1.00110   1.00
C2       0.14486    0.50253    0.99893   1.00
C3       0.33285    0.46459    1.01237   1.00
C3       0.16551    0.46957    0.98580   1.00
C3       0.33486    0.53093    0.98967   1.00
C3a      0.16672    0.53474    1.01235   1.00
H1       0.27575    0.43989    1.02132   1.00
H1       0.22125    0.44254    0.97529   1.00
H1       0.34760    0.43818    1.02144   1.00
H1       0.14944    0.44452    0.97519   1.00
H1       0.35118    0.55644    0.98069   1.00
C5       0.14620    0.57072    1.02699   1.00
H1       0.22378    0.55870    1.02339   1.00
H1       0.27941    0.55864    0.97954   1.00
H2       0.11401    0.56765    1.02437   1.00
H2       0.15295    0.57438    1.05850   1.00
N1       0.15875    0.60511    1.00503   1.00
C6       0.15356    0.61114    0.96655   1.00
C6       0.17712    0.63666    1.01957   1.00
C6       0.16898    0.64686    0.95629   1.00
C6       0.18396    0.66309    0.99001   1.00
H3       0.13951    0.59071    0.94694   1.00
H3       0.18516    0.64040    1.04989   1.00
H3       0.16924    0.65966    0.92745   1.00
H3       0.19820    0.69110    0.99274   1.00
C4       0.72917    0.49950    0.99940   1.00
C4       0.77083    0.50050    1.00060   1.00
C3       0.70846    0.46565    0.98790   1.00
C3       0.79321    0.46847    1.01394   1.00
C3       0.70643    0.53216    1.01062   1.00
C3       0.79187    0.53352    0.98744   1.00
C2       0.64487    0.49715    0.99890   1.00
C2       0.85514    0.50253    1.00107   1.00
C3       0.66715    0.46459    0.98763   1.00
C3       0.83449    0.46957    1.01420   1.00
C3       0.66514    0.53093    1.01033   1.00
C3a      0.83328    0.53474    0.98765   1.00
H1       0.72425    0.43989    0.97868   1.00
H1       0.77875    0.44254    1.02471   1.00
H1       0.65240    0.43818    0.97856   1.00
H1       0.85056    0.44452    1.02481   1.00
H1       0.64882    0.55644    1.01931   1.00
C5       0.85380    0.57072    0.97301   1.00
H1       0.77622    0.55870    0.97661   1.00
H1       0.72059    0.55864    1.02046   1.00
H2       0.88599    0.56765    0.97563   1.00
H2       0.84705    0.57438    0.94150   1.00
N1       0.84125    0.60511    0.99497   1.00
C6       0.84644    0.61114    1.03345   1.00
C6       0.82288    0.63666    0.98043   1.00
C6       0.83102    0.64686    1.04371   1.00
C6       0.81604    0.66309    1.00999   1.00
H3       0.86049    0.59071    1.05306   1.00
H3       0.81484    0.64040    0.95011   1.00
H3       0.83076    0.65966    1.07255   1.00
H3       0.80180    0.69110    1.00726   1.00
C4       0.50060    0.27083    0.99950   1.00
C4       0.49940    0.22917    1.00050   1.00
C3       0.51210    0.29154    0.96565   1.00
C3       0.48606    0.20679    0.96847   1.00
C3       0.48938    0.29357    1.03216   1.00
C3       0.51256    0.20813    1.03352   1.00
C2       0.50110    0.35513    0.99715   1.00
C2       0.49893    0.14486    1.00253   1.00
C3       0.51237    0.33285    0.96459   1.00
C3       0.48580    0.16551    0.96957   1.00
C3       0.48967    0.33486    1.03093   1.00
C3a      0.51235    0.16672    1.03474   1.00
H1       0.52132    0.27575    0.93989   1.00
H1       0.47529    0.22125    0.94254   1.00
H1       0.52144    0.34760    0.93818   1.00
H1       0.47519    0.14944    0.94452   1.00
H1       0.48069    0.35118    1.05644   1.00
C5       0.52699    0.14620    1.07072   1.00
H1       0.52339    0.22378    1.05870   1.00
H1       0.47954    0.27941    1.05864   1.00
H2       0.52437    0.11401    1.06765   1.00
H2       0.55850    0.15295    1.07438   1.00
N1       0.50503    0.15875    1.10511   1.00
C6       0.46655    0.15356    1.11114   1.00
C6       0.51957    0.17712    1.13666   1.00
C6       0.45629    0.16898    1.14686   1.00
C6       0.49001    0.18396    1.16309   1.00
H3       0.44694    0.13951    1.09071   1.00
H3       0.54989    0.18516    1.14040   1.00
H3       0.42745    0.16924    1.15966   1.00
H3       0.49274    0.19820    1.19110   1.00
C4       0.49950    0.50060    0.77083   1.00
C4       0.50050    0.49940    0.72917   1.00
C3       0.46565    0.51210    0.79154   1.00
C3       0.46847    0.48606    0.70679   1.00
C3       0.53216    0.48938    0.79357   1.00
C3       0.53352    0.51256    0.70813   1.00
C2       0.49715    0.50110    0.85513   1.00
C2       0.50253    0.49893    0.64486   1.00
C3       0.46459    0.51237    0.83285   1.00
C3       0.46957    0.48580    0.66551   1.00
C3       0.53093    0.48967    0.83486   1.00
C3a      0.53474    0.51235    0.66672   1.00
H1       0.43989    0.52132    0.77575   1.00
H1       0.44254    0.47529    0.72125   1.00
H1       0.43818    0.52144    0.84760   1.00
H1       0.44452    0.47519    0.64944   1.00
H1       0.55644    0.48069    0.85118   1.00
C5       0.57072    0.52699    0.64620   1.00
H1       0.55870    0.52339    0.72378   1.00
H1       0.55864    0.47954    0.77941   1.00
H2       0.56765    0.52437    0.61401   1.00
H2       0.57438    0.55850    0.65295   1.00
N1       0.60511    0.50503    0.65875   1.00
C6       0.61114    0.46655    0.65356   1.00
C6       0.63666    0.51957    0.67712   1.00
C6       0.64686    0.45629    0.66898   1.00
C6       0.66309    0.49001    0.68396   1.00
H3       0.59071    0.44694    0.63951   1.00
H3       0.64040    0.54989    0.68516   1.00
H3       0.65966    0.42745    0.66924   1.00
H3       0.69110    0.49274    0.69820   1.00
C4       0.49950    0.99940    0.72917   1.00
C4       0.50050    1.00060    0.77083   1.00
C3       0.46565    0.98790    0.70846   1.00
C3       0.46847    1.01394    0.79321   1.00
C3       0.53216    1.01062    0.70643   1.00
C3       0.53352    0.98744    0.79187   1.00
C2       0.49715    0.99890    0.64487   1.00
C2       0.50253    1.00107    0.85514   1.00
C3       0.46459    0.98763    0.66715   1.00
C3       0.46957    1.01420    0.83449   1.00
C3       0.53093    1.01033    0.66514   1.00
C3a      0.53474    0.98765    0.83328   1.00
H1       0.43989    0.97868    0.72425   1.00
H1       0.44254    1.02471    0.77875   1.00
H1       0.43818    0.97856    0.65240   1.00
H1       0.44452    1.02481    0.85056   1.00
H1       0.55644    1.01931    0.64882   1.00
C5       0.57072    0.97301    0.85380   1.00
H1       0.55870    0.97661    0.77622   1.00
H1       0.55864    1.02046    0.72059   1.00
H2       0.56765    0.97563    0.88599   1.00
H2       0.57438    0.94150    0.84705   1.00
N1       0.60511    0.99497    0.84125   1.00
C6       0.61114    1.03345    0.84644   1.00
C6       0.63666    0.98043    0.82288   1.00
C6       0.64686    1.04371    0.83102   1.00
C6       0.66309    1.00999    0.81604   1.00
H3       0.59071    1.05306    0.86049   1.00
H3       0.64040    0.95011    0.81484   1.00
H3       0.65966    1.07255    0.83076   1.00
H3       0.69110    1.00726    0.80180   1.00
C4       0.49940    1.22917    0.49950   1.00
C4       0.50060    1.27083    0.50050   1.00
C3       0.48790    1.20846    0.46565   1.00
C3       0.51394    1.29321    0.46847   1.00
C3       0.51062    1.20643    0.53216   1.00
C3       0.48744    1.29187    0.53352   1.00
C2       0.49890    1.14487    0.49715   1.00
C2       0.50107    1.35514    0.50253   1.00
C3       0.48763    1.16715    0.46459   1.00
C3       0.51420    1.33449    0.46957   1.00
C3       0.51033    1.16514    0.53093   1.00
C3a      0.48765    1.33328    0.53474   1.00
H1       0.47868    1.22425    0.43989   1.00
H1       0.52471    1.27875    0.44254   1.00
H1       0.47856    1.15240    0.43818   1.00
H1       0.52481    1.35056    0.44452   1.00
H1       0.51931    1.14882    0.55644   1.00
C5       0.47301    1.35380    0.57072   1.00
H1       0.47661    1.27622    0.55870   1.00
H1       0.52046    1.22059    0.55864   1.00
H2       0.47563    1.38599    0.56765   1.00
H2       0.44150    1.34705    0.57438   1.00
N1       0.49497    1.34125    0.60511   1.00
C6       0.53345    1.34644    0.61114   1.00
C6       0.48043    1.32288    0.63666   1.00
C6       0.54371    1.33102    0.64686   1.00
C6       0.50999    1.31604    0.66309   1.00
H3       0.55306    1.36049    0.59071   1.00
H3       0.45011    1.31484    0.64040   1.00
H3       0.57255    1.33076    0.65966   1.00
H3       0.50726    1.30180    0.69110   1.00
C4       0.27083    0.99950    0.50060   1.00
C4       0.22917    1.00050    0.49940   1.00
C3       0.29154    0.96565    0.51210   1.00
C3       0.20679    0.96847    0.48606   1.00
C3       0.29357    1.03216    0.48938   1.00
C3       0.20813    1.03352    0.51256   1.00
C2       0.35513    0.99715    0.50110   1.00
C2       0.14486    1.00253    0.49893   1.00
C3       0.33285    0.96459    0.51237   1.00
C3       0.16551    0.96957    0.48580   1.00
C3       0.33486    1.03093    0.48967   1.00
C3a      0.16672    1.03474    0.51235   1.00
H1       0.27575    0.93989    0.52132   1.00
H1       0.22125    0.94254    0.47529   1.00
H1       0.34760    0.93818    0.52144   1.00
H1       0.14944    0.94452    0.47519   1.00
H1       0.35118    1.05644    0.48069   1.00
C5       0.14620    1.07072    0.52699   1.00
H1       0.22378    1.05870    0.52339   1.00
H1       0.27941    1.05864    0.47954   1.00
H2       0.11401    1.06765    0.52437   1.00
H2       0.15295    1.07438    0.55850   1.00
N1       0.15875    1.10511    0.50503   1.00
C6       0.15356    1.11114    0.46655   1.00
C6       0.17712    1.13666    0.51957   1.00
C6       0.16898    1.14686    0.45629   1.00
C6       0.18396    1.16309    0.49001   1.00
H3       0.13951    1.09071    0.44694   1.00
H3       0.18516    1.14040    0.54989   1.00
H3       0.16924    1.15966    0.42745   1.00
H3       0.19820    1.19110    0.49274   1.00
C4       0.72917    0.99950    0.49940   1.00
C4       0.77083    1.00050    0.50060   1.00
C3       0.70846    0.96565    0.48790   1.00
C3       0.79321    0.96847    0.51394   1.00
C3       0.70643    1.03216    0.51062   1.00
C3       0.79187    1.03352    0.48744   1.00
C2       0.64487    0.99715    0.49890   1.00
C2       0.85514    1.00253    0.50107   1.00
C3       0.66715    0.96459    0.48763   1.00
C3       0.83449    0.96957    0.51420   1.00
C3       0.66514    1.03093    0.51033   1.00
C3a      0.83328    1.03474    0.48765   1.00
H1       0.72425    0.93989    0.47868   1.00
H1       0.77875    0.94254    0.52471   1.00
H1       0.65240    0.93818    0.47856   1.00
H1       0.85056    0.94452    0.52481   1.00
H1       0.64882    1.05644    0.51931   1.00
C5       0.85380    1.07072    0.47301   1.00
H1       0.77622    1.05870    0.47661   1.00
H1       0.72059    1.05864    0.52046   1.00
H2       0.88599    1.06765    0.47563   1.00
H2       0.84705    1.07438    0.44150   1.00
N1       0.84125    1.10511    0.49497   1.00
C6       0.84644    1.11114    0.53345   1.00
C6       0.82288    1.13666    0.48043   1.00
C6       0.83102    1.14686    0.54371   1.00
C6       0.81604    1.16309    0.50999   1.00
H3       0.86049    1.09071    0.55306   1.00
H3       0.81484    1.14040    0.45011   1.00
H3       0.83076    1.15966    0.57255   1.00
H3       0.80180    1.19110    0.50726   1.00
C4       0.50060    0.77083    0.49950   1.00
C4       0.49940    0.72917    0.50050   1.00
C3       0.51210    0.79154    0.46565   1.00
C3       0.48606    0.70679    0.46847   1.00
C3       0.48938    0.79357    0.53216   1.00
C3       0.51256    0.70813    0.53352   1.00
C2       0.50110    0.85513    0.49715   1.00
C2       0.49893    0.64486    0.50253   1.00
C3       0.51237    0.83285    0.46459   1.00
C3       0.48580    0.66551    0.46957   1.00
C3       0.48967    0.83486    0.53093   1.00
C3a      0.51235    0.66672    0.53474   1.00
H1       0.52132    0.77575    0.43989   1.00
H1       0.47529    0.72125    0.44254   1.00
H1       0.52144    0.84760    0.43818   1.00
H1       0.47519    0.64944    0.44452   1.00
H1       0.48069    0.85118    0.55644   1.00
C5       0.52699    0.64620    0.57072   1.00
H1       0.52339    0.72378    0.55870   1.00
H1       0.47954    0.77941    0.55864   1.00
H2       0.52437    0.61401    0.56765   1.00
H2       0.55850    0.65295    0.57438   1.00
N1       0.50503    0.65875    0.60511   1.00
C6       0.46655    0.65356    0.61114   1.00
C6       0.51957    0.67712    0.63666   1.00
C6       0.45629    0.66898    0.64686   1.00
C6       0.49001    0.68396    0.66309   1.00
H3       0.44694    0.63951    0.59071   1.00
H3       0.54989    0.68516    0.64040   1.00
H3       0.42745    0.66924    0.65966   1.00
H3       0.49274    0.69820    0.69110   1.00
C4       0.49950    1.00060    0.27083   1.00
C4       0.50050    0.99940    0.22917   1.00
C3       0.46565    1.01210    0.29154   1.00
C3       0.46847    0.98606    0.20679   1.00
C3       0.53216    0.98938    0.29357   1.00
C3       0.53352    1.01256    0.20813   1.00
C2       0.49715    1.00110    0.35513   1.00
C2       0.50253    0.99893    0.14486   1.00
C3       0.46459    1.01237    0.33285   1.00
C3       0.46957    0.98580    0.16551   1.00
C3       0.53093    0.98967    0.33486   1.00
C3a      0.53474    1.01235    0.16672   1.00
H1       0.43989    1.02132    0.27575   1.00
H1       0.44254    0.97529    0.22125   1.00
H1       0.43818    1.02144    0.34760   1.00
H1       0.44452    0.97519    0.14944   1.00
H1       0.55644    0.98069    0.35118   1.00
C5       0.57072    1.02699    0.14620   1.00
H1       0.55870    1.02339    0.22378   1.00
H1       0.55864    0.97954    0.27941   1.00
H2       0.56765    1.02437    0.11401   1.00
H2       0.57438    1.05850    0.15295   1.00
N1       0.60511    1.00503    0.15875   1.00
C6       0.61114    0.96655    0.15356   1.00
C6       0.63666    1.01957    0.17712   1.00
C6       0.64686    0.95629    0.16898   1.00
C6       0.66309    0.99001    0.18396   1.00
H3       0.59071    0.94694    0.13951   1.00
H3       0.64040    1.04989    0.18516   1.00
H3       0.65966    0.92745    0.16924   1.00
H3       0.69110    0.99274    0.19820   1.00
C4       0.99950    0.49940    0.72917   1.00
C4       1.00050    0.50060    0.77083   1.00
C3       0.96565    0.48790    0.70846   1.00
C3       0.96847    0.51394    0.79321   1.00
C3       1.03216    0.51062    0.70643   1.00
C3       1.03352    0.48744    0.79187   1.00
C2       0.99715    0.49890    0.64487   1.00
C2       1.00253    0.50107    0.85514   1.00
C3       0.96459    0.48763    0.66715   1.00
C3       0.96957    0.51420    0.83449   1.00
C3       1.03093    0.51033    0.66514   1.00
C3a      1.03474    0.48765    0.83328   1.00
H1       0.93989    0.47868    0.72425   1.00
H1       0.94254    0.52471    0.77875   1.00
H1       0.93818    0.47856    0.65240   1.00
H1       0.94452    0.52481    0.85056   1.00
H1       1.05644    0.51931    0.64882   1.00
C5       1.07072    0.47301    0.85380   1.00
H1       1.05870    0.47661    0.77622   1.00
H1       1.05864    0.52046    0.72059   1.00
H2       1.06765    0.47563    0.88599   1.00
H2       1.07438    0.44150    0.84705   1.00
N1       1.10511    0.49497    0.84125   1.00
C6       1.11114    0.53345    0.84644   1.00
C6       1.13666    0.48043    0.82288   1.00
C6       1.14686    0.54371    0.83102   1.00
C6       1.16309    0.50999    0.81604   1.00
H3       1.09071    0.55306    0.86049   1.00
H3       1.14040    0.45011    0.81484   1.00
H3       1.15966    0.57255    0.83076   1.00
H3       1.19110    0.50726    0.80180   1.00
C4       0.99940    0.72917    0.49950   1.00
C4       1.00060    0.77083    0.50050   1.00
C3       0.98790    0.70846    0.46565   1.00
C3       1.01394    0.79321    0.46847   1.00
C3       1.01062    0.70643    0.53216   1.00
C3       0.98744    0.79187    0.53352   1.00
C2       0.99890    0.64487    0.49715   1.00
C2       1.00107    0.85514    0.50253   1.00
C3       0.98763    0.66715    0.46459   1.00
C3       1.01420    0.83449    0.46957   1.00
C3       1.01033    0.66514    0.53093   1.00
C3a      0.98765    0.83328    0.53474   1.00
H1       0.97868    0.72425    0.43989   1.00
H1       1.02471    0.77875    0.44254   1.00
H1       0.97856    0.65240    0.43818   1.00
H1       1.02481    0.85056    0.44452   1.00
H1       1.01931    0.64882    0.55644   1.00
C5       0.97301    0.85380    0.57072   1.00
H1       0.97661    0.77622    0.55870   1.00
H1       1.02046    0.72059    0.55864   1.00
H2       0.97563    0.88599    0.56765   1.00
H2       0.94150    0.84705    0.57438   1.00
N1       0.99497    0.84125    0.60511   1.00
C6       1.03345    0.84644    0.61114   1.00
C6       0.98043    0.82288    0.63666   1.00
C6       1.04371    0.83102    0.64686   1.00
C6       1.00999    0.81604    0.66309   1.00
H3       1.05306    0.86049    0.59071   1.00
H3       0.95011    0.81484    0.64040   1.00
H3       1.07255    0.83076    0.65966   1.00
H3       1.00726    0.80180    0.69110   1.00
C4       0.77083    0.49950    0.50060   1.00
C4       0.72917    0.50050    0.49940   1.00
C3       0.79154    0.46565    0.51210   1.00
C3       0.70679    0.46847    0.48606   1.00
C3       0.79357    0.53216    0.48938   1.00
C3       0.70813    0.53352    0.51256   1.00
C2       0.85513    0.49715    0.50110   1.00
C2       0.64486    0.50253    0.49893   1.00
C3       0.83285    0.46459    0.51237   1.00
C3       0.66551    0.46957    0.48580   1.00
C3       0.83486    0.53093    0.48967   1.00
C3a      0.66672    0.53474    0.51235   1.00
H1       0.77575    0.43989    0.52132   1.00
H1       0.72125    0.44254    0.47529   1.00
H1       0.84760    0.43818    0.52144   1.00
H1       0.64944    0.44452    0.47519   1.00
H1       0.85118    0.55644    0.48069   1.00
C5       0.64620    0.57072    0.52699   1.00
H1       0.72378    0.55870    0.52339   1.00
H1       0.77941    0.55864    0.47954   1.00
H2       0.61401    0.56765    0.52437   1.00
H2       0.65295    0.57438    0.55850   1.00
N1       0.65875    0.60511    0.50503   1.00
C6       0.65356    0.61114    0.46655   1.00
C6       0.67712    0.63666    0.51957   1.00
C6       0.66898    0.64686    0.45629   1.00
C6       0.68396    0.66309    0.49001   1.00
H3       0.63951    0.59071    0.44694   1.00
H3       0.68516    0.64040    0.54989   1.00
H3       0.66924    0.65966    0.42745   1.00
H3       0.69820    0.69110    0.49274   1.00
C4       1.22917    0.49950    0.49940   1.00
C4       1.27083    0.50050    0.50060   1.00
C3       1.20846    0.46565    0.48790   1.00
C3       1.29321    0.46847    0.51394   1.00
C3       1.20643    0.53216    0.51062   1.00
C3       1.29187    0.53352    0.48744   1.00
C2       1.14487    0.49715    0.49890   1.00
C2       1.35514    0.50253    0.50107   1.00
C3       1.16715    0.46459    0.48763   1.00
C3       1.33449    0.46957    0.51420   1.00
C3       1.16514    0.53093    0.51033   1.00
C3a      1.33328    0.53474    0.48765   1.00
H1       1.22425    0.43989    0.47868   1.00
H1       1.27875    0.44254    0.52471   1.00
H1       1.15240    0.43818    0.47856   1.00
H1       1.35056    0.44452    0.52481   1.00
H1       1.14882    0.55644    0.51931   1.00
C5       1.35380    0.57072    0.47301   1.00
H1       1.27622    0.55870    0.47661   1.00
H1       1.22059    0.55864    0.52046   1.00
H2       1.38599    0.56765    0.47563   1.00
H2       1.34705    0.57438    0.44150   1.00
N1       1.34125    0.60511    0.49497   1.00
C6       1.34644    0.61114    0.53345   1.00
C6       1.32288    0.63666    0.48043   1.00
C6       1.33102    0.64686    0.54371   1.00
C6       1.31604    0.66309    0.50999   1.00
H3       1.36049    0.59071    0.55306   1.00
H3       1.31484    0.64040    0.45011   1.00
H3       1.33076    0.65966    0.57255   1.00
H3       1.30180    0.69110    0.50726   1.00
C4       1.00060    0.27083    0.49950   1.00
C4       0.99940    0.22917    0.50050   1.00
C3       1.01210    0.29154    0.46565   1.00
C3       0.98606    0.20679    0.46847   1.00
C3       0.98938    0.29357    0.53216   1.00
C3       1.01256    0.20813    0.53352   1.00
C2       1.00110    0.35513    0.49715   1.00
C2       0.99893    0.14486    0.50253   1.00
C3       1.01237    0.33285    0.46459   1.00
C3       0.98580    0.16551    0.46957   1.00
C3       0.98967    0.33486    0.53093   1.00
C3a      1.01235    0.16672    0.53474   1.00
H1       1.02132    0.27575    0.43989   1.00
H1       0.97529    0.22125    0.44254   1.00
H1       1.02144    0.34760    0.43818   1.00
H1       0.97519    0.14944    0.44452   1.00
H1       0.98069    0.35118    0.55644   1.00
C5       1.02699    0.14620    0.57072   1.00
H1       1.02339    0.22378    0.55870   1.00
H1       0.97954    0.27941    0.55864   1.00
H2       1.02437    0.11401    0.56765   1.00
H2       1.05850    0.15295    0.57438   1.00
N1       1.00503    0.15875    0.60511   1.00
C6       0.96655    0.15356    0.61114   1.00
C6       1.01957    0.17712    0.63666   1.00
C6       0.95629    0.16898    0.64686   1.00
C6       0.99001    0.18396    0.66309   1.00
H3       0.94694    0.13951    0.59071   1.00
H3       1.04989    0.18516    0.64040   1.00
H3       0.92745    0.16924    0.65966   1.00
H3       0.99274    0.19820    0.69110   1.00
C4       0.99950    0.50060    0.27083   1.00
C4       1.00050    0.49940    0.22917   1.00
C3       0.96565    0.51210    0.29154   1.00
C3       0.96847    0.48606    0.20679   1.00
C3       1.03216    0.48938    0.29357   1.00
C3       1.03352    0.51256    0.20813   1.00
C2       0.99715    0.50110    0.35513   1.00
C2       1.00253    0.49893    0.14486   1.00
C3       0.96459    0.51237    0.33285   1.00
C3       0.96957    0.48580    0.16551   1.00
C3       1.03093    0.48967    0.33486   1.00
C3a      1.03474    0.51235    0.16672   1.00
H1       0.93989    0.52132    0.27575   1.00
H1       0.94254    0.47529    0.22125   1.00
H1       0.93818    0.52144    0.34760   1.00
H1       0.94452    0.47519    0.14944   1.00
H1       1.05644    0.48069    0.35118   1.00
C5       1.07072    0.52699    0.14620   1.00
H1       1.05870    0.52339    0.22378   1.00
H1       1.05864    0.47954    0.27941   1.00
H2       1.06765    0.52437    0.11401   1.00
H2       1.07438    0.55850    0.15295   1.00
N1       1.10511    0.50503    0.15875   1.00
C6       1.11114    0.46655    0.15356   1.00
C6       1.13666    0.51957    0.17712   1.00
C6       1.14686    0.45629    0.16898   1.00
C6       1.16309    0.49001    0.18396   1.00
H3       1.09071    0.44694    0.13951   1.00
H3       1.14040    0.54989    0.18516   1.00
H3       1.15966    0.42745    0.16924   1.00
H3       1.19110    0.49274    0.19820   1.00
