data_IRMOF10_SG202_interpen_Ligand12lp_label_s.

_audit_creation_method             'generated by an auxiliary program of Tobunporous'

_symmetry_space_group_name_H-M     'P 1'
_symmetry_Int_Tables_number        1
_symmetry_cell_setting             triclinic

_cell_length_a                    34.2800
_cell_length_b                    34.2800
_cell_length_c                    34.2800
_cell_angle_alpha                 90.0000
_cell_angle_beta                  90.0000
_cell_angle_gamma                 90.0000

loop_
_atom_site_label
_atom_site_fract_x
_atom_site_fract_y
_atom_site_fract_z
_atom_site_occupancy
O1       0.75000    0.75000    0.75000   1.00
Zn1      0.71720    0.78280    0.78280   1.00
Zn1      0.78280    0.71720    0.78280   1.00
Zn1      0.78280    0.78280    0.71720   1.00
Zn1      0.71720    0.71720    0.71720   1.00
O2       0.72650    0.77350    0.83820   1.00
O2       0.72650    0.83820    0.77350   1.00
O2       0.66180    0.77350    0.77350   1.00
O2       0.77350    0.72650    0.83820   1.00
O2       0.83820    0.72650    0.77350   1.00
O2       0.77350    0.66180    0.77350   1.00
O2       0.77350    0.83820    0.72650   1.00
O2       0.83820    0.77350    0.72650   1.00
O2       0.77350    0.77350    0.66180   1.00
O2       0.66180    0.72650    0.72650   1.00
O2       0.72650    0.66180    0.72650   1.00
O2       0.72650    0.72650    0.66180   1.00
C1       0.75000    0.75000    0.85520   1.00
C1       0.75000    0.85520    0.75000   1.00
C1       0.64480    0.75000    0.75000   1.00
C1       0.85520    0.75000    0.75000   1.00
C1       0.75000    0.64480    0.75000   1.00
C1       0.75000    0.75000    0.64480   1.00
O1       0.25000    0.25000    0.75000   1.00
Zn1      0.21720    0.28280    0.78280   1.00
Zn1      0.28280    0.21720    0.78280   1.00
Zn1      0.28280    0.28280    0.71720   1.00
Zn1      0.21720    0.21720    0.71720   1.00
O2       0.22650    0.27350    0.83820   1.00
O2       0.22650    0.33820    0.77350   1.00
O2       0.16180    0.27350    0.77350   1.00
O2       0.27350    0.22650    0.83820   1.00
O2       0.33820    0.22650    0.77350   1.00
O2       0.27350    0.16180    0.77350   1.00
O2       0.27350    0.33820    0.72650   1.00
O2       0.33820    0.27350    0.72650   1.00
O2       0.27350    0.27350    0.66180   1.00
O2       0.16180    0.22650    0.72650   1.00
O2       0.22650    0.16180    0.72650   1.00
O2       0.22650    0.22650    0.66180   1.00
C1       0.25000    0.25000    0.85520   1.00
C1       0.25000    0.35520    0.75000   1.00
C1       0.14480    0.25000    0.75000   1.00
C1       0.35520    0.25000    0.75000   1.00
C1       0.25000    0.14480    0.75000   1.00
C1       0.25000    0.25000    0.64480   1.00
O1       0.25000    0.75000    0.25000   1.00
Zn1      0.21720    0.78280    0.28280   1.00
Zn1      0.28280    0.71720    0.28280   1.00
Zn1      0.28280    0.78280    0.21720   1.00
Zn1      0.21720    0.71720    0.21720   1.00
O2       0.22650    0.77350    0.33820   1.00
O2       0.22650    0.83820    0.27350   1.00
O2       0.16180    0.77350    0.27350   1.00
O2       0.27350    0.72650    0.33820   1.00
O2       0.33820    0.72650    0.27350   1.00
O2       0.27350    0.66180    0.27350   1.00
O2       0.27350    0.83820    0.22650   1.00
O2       0.33820    0.77350    0.22650   1.00
O2       0.27350    0.77350    0.16180   1.00
O2       0.16180    0.72650    0.22650   1.00
O2       0.22650    0.66180    0.22650   1.00
O2       0.22650    0.72650    0.16180   1.00
C1       0.25000    0.75000    0.35520   1.00
C1       0.25000    0.85520    0.25000   1.00
C1       0.14480    0.75000    0.25000   1.00
C1       0.35520    0.75000    0.25000   1.00
C1       0.25000    0.64480    0.25000   1.00
C1       0.25000    0.75000    0.14480   1.00
O1       0.75000    0.25000    0.25000   1.00
Zn1      0.71720    0.28280    0.28280   1.00
Zn1      0.78280    0.21720    0.28280   1.00
Zn1      0.78280    0.28280    0.21720   1.00
Zn1      0.71720    0.21720    0.21720   1.00
O2       0.72650    0.27350    0.33820   1.00
O2       0.72650    0.33820    0.27350   1.00
O2       0.66180    0.27350    0.27350   1.00
O2       0.77350    0.22650    0.33820   1.00
O2       0.83820    0.22650    0.27350   1.00
O2       0.77350    0.16180    0.27350   1.00
O2       0.77350    0.33820    0.22650   1.00
O2       0.83820    0.27350    0.22650   1.00
O2       0.77350    0.27350    0.16180   1.00
O2       0.66180    0.22650    0.22650   1.00
O2       0.72650    0.16180    0.22650   1.00
O2       0.72650    0.22650    0.16180   1.00
C1       0.75000    0.25000    0.35520   1.00
C1       0.75000    0.35520    0.25000   1.00
C1       0.64480    0.25000    0.25000   1.00
C1       0.85520    0.25000    0.25000   1.00
C1       0.75000    0.14480    0.25000   1.00
C1       0.75000    0.25000    0.14480   1.00
O1       0.25000    0.25000    0.25000   1.00
Zn1      0.28280    0.21720    0.21720   1.00
Zn1      0.21720    0.28280    0.21720   1.00
Zn1      0.21720    0.21720    0.28280   1.00
Zn1      0.28280    0.28280    0.28280   1.00
O2       0.27350    0.22650    0.16180   1.00
O2       0.27350    0.16180    0.22650   1.00
O2       0.33820    0.22650    0.22650   1.00
O2       0.22650    0.27350    0.16180   1.00
O2       0.16180    0.27350    0.22650   1.00
O2       0.22650    0.33820    0.22650   1.00
O2       0.22650    0.16180    0.27350   1.00
O2       0.16180    0.22650    0.27350   1.00
O2       0.22650    0.22650    0.33820   1.00
O2       0.33820    0.27350    0.27350   1.00
O2       0.27350    0.33820    0.27350   1.00
O2       0.27350    0.27350    0.33820   1.00
C1       0.25000    0.25000    0.14480   1.00
C1       0.25000    0.14480    0.25000   1.00
C1       0.35520    0.25000    0.25000   1.00
C1       0.14480    0.25000    0.25000   1.00
C1       0.25000    0.35520    0.25000   1.00
C1       0.25000    0.25000    0.35520   1.00
O1       0.75000    0.75000    0.25000   1.00
Zn1      0.78280    0.71720    0.21720   1.00
Zn1      0.71720    0.78280    0.21720   1.00
Zn1      0.71720    0.71720    0.28280   1.00
Zn1      0.78280    0.78280    0.28280   1.00
O2       0.77350    0.72650    0.16180   1.00
O2       0.77350    0.66180    0.22650   1.00
O2       0.83820    0.72650    0.22650   1.00
O2       0.72650    0.77350    0.16180   1.00
O2       0.66180    0.77350    0.22650   1.00
O2       0.72650    0.83820    0.22650   1.00
O2       0.72650    0.66180    0.27350   1.00
O2       0.66180    0.72650    0.27350   1.00
O2       0.72650    0.72650    0.33820   1.00
O2       0.83820    0.77350    0.27350   1.00
O2       0.77350    0.83820    0.27350   1.00
O2       0.77350    0.77350    0.33820   1.00
C1       0.75000    0.75000    0.14480   1.00
C1       0.75000    0.64480    0.25000   1.00
C1       0.85520    0.75000    0.25000   1.00
C1       0.64480    0.75000    0.25000   1.00
C1       0.75000    0.85520    0.25000   1.00
C1       0.75000    0.75000    0.35520   1.00
O1       0.75000    0.25000    0.75000   1.00
Zn1      0.78280    0.21720    0.71720   1.00
Zn1      0.71720    0.28280    0.71720   1.00
Zn1      0.71720    0.21720    0.78280   1.00
Zn1      0.78280    0.28280    0.78280   1.00
O2       0.77350    0.22650    0.66180   1.00
O2       0.77350    0.16180    0.72650   1.00
O2       0.83820    0.22650    0.72650   1.00
O2       0.72650    0.27350    0.66180   1.00
O2       0.66180    0.27350    0.72650   1.00
O2       0.72650    0.33820    0.72650   1.00
O2       0.72650    0.16180    0.77350   1.00
O2       0.66180    0.22650    0.77350   1.00
O2       0.72650    0.22650    0.83820   1.00
O2       0.83820    0.27350    0.77350   1.00
O2       0.77350    0.33820    0.77350   1.00
O2       0.77350    0.27350    0.83820   1.00
C1       0.75000    0.25000    0.64480   1.00
C1       0.75000    0.14480    0.75000   1.00
C1       0.85520    0.25000    0.75000   1.00
C1       0.64480    0.25000    0.75000   1.00
C1       0.75000    0.35520    0.75000   1.00
C1       0.75000    0.25000    0.85520   1.00
O1       0.25000    0.75000    0.75000   1.00
Zn1      0.28280    0.71720    0.71720   1.00
Zn1      0.21720    0.78280    0.71720   1.00
Zn1      0.21720    0.71720    0.78280   1.00
Zn1      0.28280    0.78280    0.78280   1.00
O2       0.27350    0.72650    0.66180   1.00
O2       0.27350    0.66180    0.72650   1.00
O2       0.33820    0.72650    0.72650   1.00
O2       0.22650    0.77350    0.66180   1.00
O2       0.16180    0.77350    0.72650   1.00
O2       0.22650    0.83820    0.72650   1.00
O2       0.22650    0.66180    0.77350   1.00
O2       0.16180    0.72650    0.77350   1.00
O2       0.22650    0.72650    0.83820   1.00
O2       0.33820    0.77350    0.77350   1.00
O2       0.27350    0.83820    0.77350   1.00
O2       0.27350    0.77350    0.83820   1.00
C1       0.25000    0.75000    0.64480   1.00
C1       0.25000    0.64480    0.75000   1.00
C1       0.35520    0.75000    0.75000   1.00
C1       0.14480    0.75000    0.75000   1.00
C1       0.25000    0.85520    0.75000   1.00
C1       0.25000    0.75000    0.85520   1.00
O1       1.00000    1.00000    1.00000   1.00
Zn1      0.96720    1.03280    1.03280   1.00
Zn1      1.03280    0.96720    1.03280   1.00
Zn1      1.03280    1.03280    0.96720   1.00
Zn1      0.96720    0.96720    0.96720   1.00
O2       0.97650    1.02350    1.08820   1.00
O2       0.97650    1.08820    1.02350   1.00
O2       0.91180    1.02350    1.02350   1.00
O2       1.02350    0.97650    1.08820   1.00
O2       1.08820    0.97650    1.02350   1.00
O2       1.02350    0.91180    1.02350   1.00
O2       1.02350    1.08820    0.97650   1.00
O2       1.08820    1.02350    0.97650   1.00
O2       1.02350    1.02350    0.91180   1.00
O2       0.91180    0.97650    0.97650   1.00
O2       0.97650    0.91180    0.97650   1.00
O2       0.97650    0.97650    0.91180   1.00
C1       1.00000    1.00000    1.10520   1.00
C1       1.00000    1.10520    1.00000   1.00
C1       0.89480    1.00000    1.00000   1.00
C1       1.10520    1.00000    1.00000   1.00
C1       1.00000    0.89480    1.00000   1.00
C1       1.00000    1.00000    0.89480   1.00
O1       0.50000    0.50000    1.00000   1.00
Zn1      0.46720    0.53280    1.03280   1.00
Zn1      0.53280    0.46720    1.03280   1.00
Zn1      0.53280    0.53280    0.96720   1.00
Zn1      0.46720    0.46720    0.96720   1.00
O2       0.47650    0.52350    1.08820   1.00
O2       0.47650    0.58820    1.02350   1.00
O2       0.41180    0.52350    1.02350   1.00
O2       0.52350    0.47650    1.08820   1.00
O2       0.58820    0.47650    1.02350   1.00
O2       0.52350    0.41180    1.02350   1.00
O2       0.52350    0.58820    0.97650   1.00
O2       0.58820    0.52350    0.97650   1.00
O2       0.52350    0.52350    0.91180   1.00
O2       0.41180    0.47650    0.97650   1.00
O2       0.47650    0.41180    0.97650   1.00
O2       0.47650    0.47650    0.91180   1.00
C1       0.50000    0.50000    1.10520   1.00
C1       0.50000    0.60520    1.00000   1.00
C1       0.39480    0.50000    1.00000   1.00
C1       0.60520    0.50000    1.00000   1.00
C1       0.50000    0.39480    1.00000   1.00
C1       0.50000    0.50000    0.89480   1.00
O1       0.50000    1.00000    0.50000   1.00
Zn1      0.46720    1.03280    0.53280   1.00
Zn1      0.53280    0.96720    0.53280   1.00
Zn1      0.53280    1.03280    0.46720   1.00
Zn1      0.46720    0.96720    0.46720   1.00
O2       0.47650    1.02350    0.58820   1.00
O2       0.47650    1.08820    0.52350   1.00
O2       0.41180    1.02350    0.52350   1.00
O2       0.52350    0.97650    0.58820   1.00
O2       0.58820    0.97650    0.52350   1.00
O2       0.52350    0.91180    0.52350   1.00
O2       0.52350    1.08820    0.47650   1.00
O2       0.58820    1.02350    0.47650   1.00
O2       0.52350    1.02350    0.41180   1.00
O2       0.41180    0.97650    0.47650   1.00
O2       0.47650    0.91180    0.47650   1.00
O2       0.47650    0.97650    0.41180   1.00
C1       0.50000    1.00000    0.60520   1.00
C1       0.50000    1.10520    0.50000   1.00
C1       0.39480    1.00000    0.50000   1.00
C1       0.60520    1.00000    0.50000   1.00
C1       0.50000    0.89480    0.50000   1.00
C1       0.50000    1.00000    0.39480   1.00
O1       1.00000    0.50000    0.50000   1.00
Zn1      0.96720    0.53280    0.53280   1.00
Zn1      1.03280    0.46720    0.53280   1.00
Zn1      1.03280    0.53280    0.46720   1.00
Zn1      0.96720    0.46720    0.46720   1.00
O2       0.97650    0.52350    0.58820   1.00
O2       0.97650    0.58820    0.52350   1.00
O2       0.91180    0.52350    0.52350   1.00
O2       1.02350    0.47650    0.58820   1.00
O2       1.08820    0.47650    0.52350   1.00
O2       1.02350    0.41180    0.52350   1.00
O2       1.02350    0.58820    0.47650   1.00
O2       1.08820    0.52350    0.47650   1.00
O2       1.02350    0.52350    0.41180   1.00
O2       0.91180    0.47650    0.47650   1.00
O2       0.97650    0.41180    0.47650   1.00
O2       0.97650    0.47650    0.41180   1.00
C1       1.00000    0.50000    0.60520   1.00
C1       1.00000    0.60520    0.50000   1.00
C1       0.89480    0.50000    0.50000   1.00
C1       1.10520    0.50000    0.50000   1.00
C1       1.00000    0.39480    0.50000   1.00
C1       1.00000    0.50000    0.39480   1.00
O1       0.50000    0.50000    0.50000   1.00
Zn1      0.53280    0.46720    0.46720   1.00
Zn1      0.46720    0.53280    0.46720   1.00
Zn1      0.46720    0.46720    0.53280   1.00
Zn1      0.53280    0.53280    0.53280   1.00
O2       0.52350    0.47650    0.41180   1.00
O2       0.52350    0.41180    0.47650   1.00
O2       0.58820    0.47650    0.47650   1.00
O2       0.47650    0.52350    0.41180   1.00
O2       0.41180    0.52350    0.47650   1.00
O2       0.47650    0.58820    0.47650   1.00
O2       0.47650    0.41180    0.52350   1.00
O2       0.41180    0.47650    0.52350   1.00
O2       0.47650    0.47650    0.58820   1.00
O2       0.58820    0.52350    0.52350   1.00
O2       0.52350    0.58820    0.52350   1.00
O2       0.52350    0.52350    0.58820   1.00
C1       0.50000    0.50000    0.39480   1.00
C1       0.50000    0.39480    0.50000   1.00
C1       0.60520    0.50000    0.50000   1.00
C1       0.39480    0.50000    0.50000   1.00
C1       0.50000    0.60520    0.50000   1.00
C1       0.50000    0.50000    0.60520   1.00
O1       1.00000    1.00000    0.50000   1.00
Zn1      1.03280    0.96720    0.46720   1.00
Zn1      0.96720    1.03280    0.46720   1.00
Zn1      0.96720    0.96720    0.53280   1.00
Zn1      1.03280    1.03280    0.53280   1.00
O2       1.02350    0.97650    0.41180   1.00
O2       1.02350    0.91180    0.47650   1.00
O2       1.08820    0.97650    0.47650   1.00
O2       0.97650    1.02350    0.41180   1.00
O2       0.91180    1.02350    0.47650   1.00
O2       0.97650    1.08820    0.47650   1.00
O2       0.97650    0.91180    0.52350   1.00
O2       0.91180    0.97650    0.52350   1.00
O2       0.97650    0.97650    0.58820   1.00
O2       1.08820    1.02350    0.52350   1.00
O2       1.02350    1.08820    0.52350   1.00
O2       1.02350    1.02350    0.58820   1.00
C1       1.00000    1.00000    0.39480   1.00
C1       1.00000    0.89480    0.50000   1.00
C1       1.10520    1.00000    0.50000   1.00
C1       0.89480    1.00000    0.50000   1.00
C1       1.00000    1.10520    0.50000   1.00
C1       1.00000    1.00000    0.60520   1.00
O1       1.00000    0.50000    1.00000   1.00
Zn1      1.03280    0.46720    0.96720   1.00
Zn1      0.96720    0.53280    0.96720   1.00
Zn1      0.96720    0.46720    1.03280   1.00
Zn1      1.03280    0.53280    1.03280   1.00
O2       1.02350    0.47650    0.91180   1.00
O2       1.02350    0.41180    0.97650   1.00
O2       1.08820    0.47650    0.97650   1.00
O2       0.97650    0.52350    0.91180   1.00
O2       0.91180    0.52350    0.97650   1.00
O2       0.97650    0.58820    0.97650   1.00
O2       0.97650    0.41180    1.02350   1.00
O2       0.91180    0.47650    1.02350   1.00
O2       0.97650    0.47650    1.08820   1.00
O2       1.08820    0.52350    1.02350   1.00
O2       1.02350    0.58820    1.02350   1.00
O2       1.02350    0.52350    1.08820   1.00
C1       1.00000    0.50000    0.89480   1.00
C1       1.00000    0.39480    1.00000   1.00
C1       1.10520    0.50000    1.00000   1.00
C1       0.89480    0.50000    1.00000   1.00
C1       1.00000    0.60520    1.00000   1.00
C1       1.00000    0.50000    1.10520   1.00
O1       0.50000    1.00000    1.00000   1.00
Zn1      0.53280    0.96720    0.96720   1.00
Zn1      0.46720    1.03280    0.96720   1.00
Zn1      0.46720    0.96720    1.03280   1.00
Zn1      0.53280    1.03280    1.03280   1.00
O2       0.52350    0.97650    0.91180   1.00
O2       0.52350    0.91180    0.97650   1.00
O2       0.58820    0.97650    0.97650   1.00
O2       0.47650    1.02350    0.91180   1.00
O2       0.41180    1.02350    0.97650   1.00
O2       0.47650    1.08820    0.97650   1.00
O2       0.47650    0.91180    1.02350   1.00
O2       0.41180    0.97650    1.02350   1.00
O2       0.47650    0.97650    1.08820   1.00
O2       0.58820    1.02350    1.02350   1.00
O2       0.52350    1.08820    1.02350   1.00
O2       0.52350    1.02350    1.08820   1.00
C1       0.50000    1.00000    0.89480   1.00
C1       0.50000    0.89480    1.00000   1.00
C1       0.60520    1.00000    1.00000   1.00
C1       0.39480    1.00000    1.00000   1.00
C1       0.50000    1.10520    1.00000   1.00
C1       0.50000    1.00000    1.10520   1.00
C4       0.74961    0.74933    1.02067   1.00
C4       0.75039    0.75067    0.97933   1.00
C3       0.71733    0.76373    1.04244   1.00
C3       0.72177    0.77143    0.95756   1.00
C4       0.78183    0.73354    1.04150   1.00
C4       0.78017    0.73067    0.95850   1.00
C2       0.74946    0.75033    1.10352   1.00
C2       0.74945    0.75030    0.89648   1.00
C3       0.71760    0.76447    1.08310   1.00
C3       0.72127    0.77082    0.91690   1.00
C3       0.78101    0.73453    1.08306   1.00
C3       0.77890    0.73088    0.91694   1.00
H1       0.69086    0.77383    1.02888   1.00
H1       0.69979    0.78930    0.97112   1.00
C5       0.81366    0.71669    1.02065   1.00
C5       0.81068    0.71152    0.97935   1.00
H1       0.69272    0.77591    1.09886   1.00
H1       0.69892    0.78665    0.90114   1.00
H1       0.80431    0.72265    1.10053   1.00
H1       0.80084    0.71664    0.89947   1.00
C6       0.85112    0.70578    1.04234   1.00
C6       0.83885    0.68454    0.95766   1.00
H2       0.87702    0.71085    1.02358   1.00
H2       0.85673    0.72533    1.06737   1.00
C6       0.84949    0.66352    1.05724   1.00
H2       0.84742    0.65957    0.97642   1.00
H2       0.82473    0.66990    0.93263   1.00
C6       0.87464    0.70708    0.94276   1.00
H2       0.84476    0.64276    1.03274   1.00
C6       0.88726    0.65291    1.07832   1.00
H2       0.82441    0.65992    1.07760   1.00
C6       0.90271    0.67968    0.92168   1.00
H2       0.86522    0.73060    0.92240   1.00
H2       0.89026    0.72155    0.96726   1.00
H2       0.91257    0.65548    1.05822   1.00
H2       0.89194    0.67241    1.10380   1.00
H2       0.88569    0.62234    1.08898   1.00
H2       0.91314    0.65647    0.94178   1.00
H2       0.88817    0.66587    0.89620   1.00
H2       0.92841    0.69632    0.91102   1.00
C4       0.74933    1.02067    0.74961   1.00
C4       0.75067    0.97933    0.75039   1.00
C3       0.76373    1.04244    0.71733   1.00
C3       0.77143    0.95756    0.72177   1.00
C4       0.73354    1.04150    0.78183   1.00
C4       0.73067    0.95850    0.78017   1.00
C2       0.75033    1.10352    0.74946   1.00
C2       0.75030    0.89648    0.74945   1.00
C3       0.76447    1.08310    0.71760   1.00
C3       0.77082    0.91690    0.72127   1.00
C3       0.73453    1.08306    0.78101   1.00
C3       0.73088    0.91694    0.77890   1.00
H1       0.77383    1.02888    0.69086   1.00
H1       0.78930    0.97112    0.69979   1.00
C5       0.71669    1.02065    0.81366   1.00
C5       0.71152    0.97935    0.81068   1.00
H1       0.77591    1.09886    0.69272   1.00
H1       0.78665    0.90114    0.69892   1.00
H1       0.72265    1.10053    0.80431   1.00
H1       0.71664    0.89947    0.80084   1.00
C6       0.70578    1.04234    0.85112   1.00
C6       0.68454    0.95766    0.83885   1.00
H2       0.71085    1.02358    0.87702   1.00
H2       0.72533    1.06737    0.85673   1.00
C6       0.66352    1.05724    0.84949   1.00
H2       0.65957    0.97642    0.84742   1.00
H2       0.66990    0.93263    0.82473   1.00
C6       0.70708    0.94276    0.87464   1.00
H2       0.64276    1.03274    0.84476   1.00
C6       0.65291    1.07832    0.88726   1.00
H2       0.65992    1.07760    0.82441   1.00
C6       0.67968    0.92168    0.90271   1.00
H2       0.73060    0.92240    0.86522   1.00
H2       0.72155    0.96726    0.89026   1.00
H2       0.65548    1.05822    0.91257   1.00
H2       0.67241    1.10380    0.89194   1.00
H2       0.62234    1.08898    0.88569   1.00
H2       0.65647    0.94178    0.91314   1.00
H2       0.66587    0.89620    0.88817   1.00
H2       0.69632    0.91102    0.92841   1.00
C4       0.47933    0.74961    0.75067   1.00
C4       0.52067    0.75039    0.74933   1.00
C3       0.45756    0.71733    0.73627   1.00
C3       0.54244    0.72177    0.72857   1.00
C4       0.45850    0.78183    0.76646   1.00
C4       0.54150    0.78017    0.76933   1.00
C2       0.39648    0.74946    0.74967   1.00
C2       0.60352    0.74945    0.74970   1.00
C3       0.41690    0.71760    0.73553   1.00
C3       0.58310    0.72127    0.72918   1.00
C3       0.41694    0.78101    0.76547   1.00
C3       0.58306    0.77890    0.76912   1.00
H1       0.47112    0.69086    0.72617   1.00
H1       0.52888    0.69979    0.71070   1.00
C5       0.47935    0.81366    0.78331   1.00
C5       0.52065    0.81068    0.78848   1.00
H1       0.40114    0.69272    0.72409   1.00
H1       0.59886    0.69892    0.71335   1.00
H1       0.39947    0.80431    0.77735   1.00
H1       0.60053    0.80084    0.78336   1.00
C6       0.45766    0.85112    0.79422   1.00
C6       0.54234    0.83885    0.81546   1.00
H2       0.47642    0.87702    0.78915   1.00
H2       0.43263    0.85673    0.77467   1.00
C6       0.44276    0.84949    0.83648   1.00
H2       0.52358    0.84742    0.84043   1.00
H2       0.56737    0.82473    0.83010   1.00
C6       0.55724    0.87464    0.79292   1.00
H2       0.46726    0.84476    0.85724   1.00
C6       0.42168    0.88726    0.84709   1.00
H2       0.42240    0.82441    0.84008   1.00
C6       0.57832    0.90271    0.82032   1.00
H2       0.57760    0.86522    0.76940   1.00
H2       0.53274    0.89026    0.77845   1.00
H2       0.44178    0.91257    0.84452   1.00
H2       0.39620    0.89194    0.82759   1.00
H2       0.41102    0.88569    0.87766   1.00
H2       0.55822    0.91314    0.84353   1.00
H2       0.60380    0.88817    0.83413   1.00
H2       0.58898    0.92841    0.80368   1.00
C4       1.02067    0.74961    0.74933   1.00
C4       0.97933    0.75039    0.75067   1.00
C3       1.04244    0.71733    0.76373   1.00
C3       0.95756    0.72177    0.77143   1.00
C4       1.04150    0.78183    0.73354   1.00
C4       0.95850    0.78017    0.73067   1.00
C2       1.10352    0.74946    0.75033   1.00
C2       0.89648    0.74945    0.75030   1.00
C3       1.08310    0.71760    0.76447   1.00
C3       0.91690    0.72127    0.77082   1.00
C3       1.08306    0.78101    0.73453   1.00
C3       0.91694    0.77890    0.73088   1.00
H1       1.02888    0.69086    0.77383   1.00
H1       0.97112    0.69979    0.78930   1.00
C5       1.02065    0.81366    0.71669   1.00
C5       0.97935    0.81068    0.71152   1.00
H1       1.09886    0.69272    0.77591   1.00
H1       0.90114    0.69892    0.78665   1.00
H1       1.10053    0.80431    0.72265   1.00
H1       0.89947    0.80084    0.71664   1.00
C6       1.04234    0.85112    0.70578   1.00
C6       0.95766    0.83885    0.68454   1.00
H2       1.02358    0.87702    0.71085   1.00
H2       1.06737    0.85673    0.72533   1.00
C6       1.05724    0.84949    0.66352   1.00
H2       0.97642    0.84742    0.65957   1.00
H2       0.93263    0.82473    0.66990   1.00
C6       0.94276    0.87464    0.70708   1.00
H2       1.03274    0.84476    0.64276   1.00
C6       1.07832    0.88726    0.65291   1.00
H2       1.07760    0.82441    0.65992   1.00
C6       0.92168    0.90271    0.67968   1.00
H2       0.92240    0.86522    0.73060   1.00
H2       0.96726    0.89026    0.72155   1.00
H2       1.05822    0.91257    0.65548   1.00
H2       1.10380    0.89194    0.67241   1.00
H2       1.08898    0.88569    0.62234   1.00
H2       0.94178    0.91314    0.65647   1.00
H2       0.89620    0.88817    0.66587   1.00
H2       0.91102    0.92841    0.69632   1.00
C4       0.75067    0.47933    0.74961   1.00
C4       0.74933    0.52067    0.75039   1.00
C3       0.73627    0.45756    0.71733   1.00
C3       0.72857    0.54244    0.72177   1.00
C4       0.76646    0.45850    0.78183   1.00
C4       0.76933    0.54150    0.78017   1.00
C2       0.74967    0.39648    0.74946   1.00
C2       0.74970    0.60352    0.74945   1.00
C3       0.73553    0.41690    0.71760   1.00
C3       0.72918    0.58310    0.72127   1.00
C3       0.76547    0.41694    0.78101   1.00
C3       0.76912    0.58306    0.77890   1.00
H1       0.72617    0.47112    0.69086   1.00
H1       0.71070    0.52888    0.69979   1.00
C5       0.78331    0.47935    0.81366   1.00
C5       0.78848    0.52065    0.81068   1.00
H1       0.72409    0.40114    0.69272   1.00
H1       0.71335    0.59886    0.69892   1.00
H1       0.77735    0.39947    0.80431   1.00
H1       0.78336    0.60053    0.80084   1.00
C6       0.79422    0.45766    0.85112   1.00
C6       0.81546    0.54234    0.83885   1.00
H2       0.78915    0.47642    0.87702   1.00
H2       0.77467    0.43263    0.85673   1.00
C6       0.83648    0.44276    0.84949   1.00
H2       0.84043    0.52358    0.84742   1.00
H2       0.83010    0.56737    0.82473   1.00
C6       0.79292    0.55724    0.87464   1.00
H2       0.85724    0.46726    0.84476   1.00
C6       0.84709    0.42168    0.88726   1.00
H2       0.84008    0.42240    0.82441   1.00
C6       0.82032    0.57832    0.90271   1.00
H2       0.76940    0.57760    0.86522   1.00
H2       0.77845    0.53274    0.89026   1.00
H2       0.84452    0.44178    0.91257   1.00
H2       0.82759    0.39620    0.89194   1.00
H2       0.87766    0.41102    0.88569   1.00
H2       0.84353    0.55822    0.91314   1.00
H2       0.83413    0.60380    0.88817   1.00
H2       0.80368    0.58898    0.92841   1.00
C4       0.74961    0.75067    0.47933   1.00
C4       0.75039    0.74933    0.52067   1.00
C3       0.71733    0.73627    0.45756   1.00
C3       0.72177    0.72857    0.54244   1.00
C4       0.78183    0.76646    0.45850   1.00
C4       0.78017    0.76933    0.54150   1.00
C2       0.74946    0.74967    0.39648   1.00
C2       0.74945    0.74970    0.60352   1.00
C3       0.71760    0.73553    0.41690   1.00
C3       0.72127    0.72918    0.58310   1.00
C3       0.78101    0.76547    0.41694   1.00
C3       0.77890    0.76912    0.58306   1.00
H1       0.69086    0.72617    0.47112   1.00
H1       0.69979    0.71070    0.52888   1.00
C5       0.81366    0.78331    0.47935   1.00
C5       0.81068    0.78848    0.52065   1.00
H1       0.69272    0.72409    0.40114   1.00
H1       0.69892    0.71335    0.59886   1.00
H1       0.80431    0.77735    0.39947   1.00
H1       0.80084    0.78336    0.60053   1.00
C6       0.85112    0.79422    0.45766   1.00
C6       0.83885    0.81546    0.54234   1.00
H2       0.87702    0.78915    0.47642   1.00
H2       0.85673    0.77467    0.43263   1.00
C6       0.84949    0.83648    0.44276   1.00
H2       0.84742    0.84043    0.52358   1.00
H2       0.82473    0.83010    0.56737   1.00
C6       0.87464    0.79292    0.55724   1.00
H2       0.84476    0.85724    0.46726   1.00
C6       0.88726    0.84709    0.42168   1.00
H2       0.82441    0.84008    0.42240   1.00
C6       0.90271    0.82032    0.57832   1.00
H2       0.86522    0.76940    0.57760   1.00
H2       0.89026    0.77845    0.53274   1.00
H2       0.91257    0.84452    0.44178   1.00
H2       0.89194    0.82759    0.39620   1.00
H2       0.88569    0.87766    0.41102   1.00
H2       0.91314    0.84353    0.55822   1.00
H2       0.88817    0.83413    0.60380   1.00
H2       0.92841    0.80368    0.58898   1.00
C4       0.24961    0.24933    1.02067   1.00
C4       0.25039    0.25067    0.97933   1.00
C3       0.21733    0.26373    1.04244   1.00
C3       0.22177    0.27143    0.95756   1.00
C4       0.28183    0.23354    1.04150   1.00
C4       0.28017    0.23067    0.95850   1.00
C2       0.24946    0.25033    1.10352   1.00
C2       0.24945    0.25030    0.89648   1.00
C3       0.21760    0.26447    1.08310   1.00
C3       0.22127    0.27082    0.91690   1.00
C3       0.28101    0.23453    1.08306   1.00
C3       0.27890    0.23088    0.91694   1.00
H1       0.19086    0.27383    1.02888   1.00
H1       0.19979    0.28930    0.97112   1.00
C5       0.31366    0.21669    1.02065   1.00
C5       0.31068    0.21152    0.97935   1.00
H1       0.19272    0.27591    1.09886   1.00
H1       0.19892    0.28665    0.90114   1.00
H1       0.30431    0.22265    1.10053   1.00
H1       0.30084    0.21664    0.89947   1.00
C6       0.35112    0.20578    1.04234   1.00
C6       0.33885    0.18454    0.95766   1.00
H2       0.37702    0.21085    1.02358   1.00
H2       0.35673    0.22533    1.06737   1.00
C6       0.34949    0.16352    1.05724   1.00
H2       0.34742    0.15957    0.97642   1.00
H2       0.32473    0.16990    0.93263   1.00
C6       0.37464    0.20708    0.94276   1.00
H2       0.34476    0.14276    1.03274   1.00
C6       0.38726    0.15291    1.07832   1.00
H2       0.32441    0.15992    1.07760   1.00
C6       0.40271    0.17968    0.92168   1.00
H2       0.36522    0.23060    0.92240   1.00
H2       0.39026    0.22155    0.96726   1.00
H2       0.41257    0.15548    1.05822   1.00
H2       0.39194    0.17241    1.10380   1.00
H2       0.38569    0.12234    1.08898   1.00
H2       0.41314    0.15647    0.94178   1.00
H2       0.38817    0.16587    0.89620   1.00
H2       0.42841    0.19632    0.91102   1.00
C4       0.24933    0.52067    0.74961   1.00
C4       0.25067    0.47933    0.75039   1.00
C3       0.26373    0.54244    0.71733   1.00
C3       0.27143    0.45756    0.72177   1.00
C4       0.23354    0.54150    0.78183   1.00
C4       0.23067    0.45850    0.78017   1.00
C2       0.25033    0.60352    0.74946   1.00
C2       0.25030    0.39648    0.74945   1.00
C3       0.26447    0.58310    0.71760   1.00
C3       0.27082    0.41690    0.72127   1.00
C3       0.23453    0.58306    0.78101   1.00
C3       0.23088    0.41694    0.77890   1.00
H1       0.27383    0.52888    0.69086   1.00
H1       0.28930    0.47112    0.69979   1.00
C5       0.21669    0.52065    0.81366   1.00
C5       0.21152    0.47935    0.81068   1.00
H1       0.27591    0.59886    0.69272   1.00
H1       0.28665    0.40114    0.69892   1.00
H1       0.22265    0.60053    0.80431   1.00
H1       0.21664    0.39947    0.80084   1.00
C6       0.20578    0.54234    0.85112   1.00
C6       0.18454    0.45766    0.83885   1.00
H2       0.21085    0.52358    0.87702   1.00
H2       0.22533    0.56737    0.85673   1.00
C6       0.16352    0.55724    0.84949   1.00
H2       0.15957    0.47642    0.84742   1.00
H2       0.16990    0.43263    0.82473   1.00
C6       0.20708    0.44276    0.87464   1.00
H2       0.14276    0.53274    0.84476   1.00
C6       0.15291    0.57832    0.88726   1.00
H2       0.15992    0.57760    0.82441   1.00
C6       0.17968    0.42168    0.90271   1.00
H2       0.23060    0.42240    0.86522   1.00
H2       0.22155    0.46726    0.89026   1.00
H2       0.15548    0.55822    0.91257   1.00
H2       0.17241    0.60380    0.89194   1.00
H2       0.12234    0.58898    0.88569   1.00
H2       0.15647    0.44178    0.91314   1.00
H2       0.16587    0.39620    0.88817   1.00
H2       0.19632    0.41102    0.92841   1.00
C4       -0.02067   0.24961    0.75067   1.00
C4       0.02067    0.25039    0.74933   1.00
C3       -0.04244   0.21733    0.73627   1.00
C3       0.04244    0.22177    0.72857   1.00
C4       -0.04150   0.28183    0.76646   1.00
C4       0.04150    0.28017    0.76933   1.00
C2       -0.10352   0.24946    0.74967   1.00
C2       0.10352    0.24945    0.74970   1.00
C3       -0.08310   0.21760    0.73553   1.00
C3       0.08310    0.22127    0.72918   1.00
C3       -0.08306   0.28101    0.76547   1.00
C3       0.08306    0.27890    0.76912   1.00
H1       -0.02888   0.19086    0.72617   1.00
H1       0.02888    0.19979    0.71070   1.00
C5       -0.02065   0.31366    0.78331   1.00
C5       0.02065    0.31068    0.78848   1.00
H1       -0.09886   0.19272    0.72409   1.00
H1       0.09886    0.19892    0.71335   1.00
H1       -0.10053   0.30431    0.77735   1.00
H1       0.10053    0.30084    0.78336   1.00
C6       -0.04234   0.35112    0.79422   1.00
C6       0.04234    0.33885    0.81546   1.00
H2       -0.02358   0.37702    0.78915   1.00
H2       -0.06737   0.35673    0.77467   1.00
C6       -0.05724   0.34949    0.83648   1.00
H2       0.02358    0.34742    0.84043   1.00
H2       0.06737    0.32473    0.83010   1.00
C6       0.05724    0.37464    0.79292   1.00
H2       -0.03274   0.34476    0.85724   1.00
C6       -0.07832   0.38726    0.84709   1.00
H2       -0.07760   0.32441    0.84008   1.00
C6       0.07832    0.40271    0.82032   1.00
H2       0.07760    0.36522    0.76940   1.00
H2       0.03274    0.39026    0.77845   1.00
H2       -0.05822   0.41257    0.84452   1.00
H2       -0.10380   0.39194    0.82759   1.00
H2       -0.08898   0.38569    0.87766   1.00
H2       0.05822    0.41314    0.84353   1.00
H2       0.10380    0.38817    0.83413   1.00
H2       0.08898    0.42841    0.80368   1.00
C4       0.52067    0.24961    0.74933   1.00
C4       0.47933    0.25039    0.75067   1.00
C3       0.54244    0.21733    0.76373   1.00
C3       0.45756    0.22177    0.77143   1.00
C4       0.54150    0.28183    0.73354   1.00
C4       0.45850    0.28017    0.73067   1.00
C2       0.60352    0.24946    0.75033   1.00
C2       0.39648    0.24945    0.75030   1.00
C3       0.58310    0.21760    0.76447   1.00
C3       0.41690    0.22127    0.77082   1.00
C3       0.58306    0.28101    0.73453   1.00
C3       0.41694    0.27890    0.73088   1.00
H1       0.52888    0.19086    0.77383   1.00
H1       0.47112    0.19979    0.78930   1.00
C5       0.52065    0.31366    0.71669   1.00
C5       0.47935    0.31068    0.71152   1.00
H1       0.59886    0.19272    0.77591   1.00
H1       0.40114    0.19892    0.78665   1.00
H1       0.60053    0.30431    0.72265   1.00
H1       0.39947    0.30084    0.71664   1.00
C6       0.54234    0.35112    0.70578   1.00
C6       0.45766    0.33885    0.68454   1.00
H2       0.52358    0.37702    0.71085   1.00
H2       0.56737    0.35673    0.72533   1.00
C6       0.55724    0.34949    0.66352   1.00
H2       0.47642    0.34742    0.65957   1.00
H2       0.43263    0.32473    0.66990   1.00
C6       0.44276    0.37464    0.70708   1.00
H2       0.53274    0.34476    0.64276   1.00
C6       0.57832    0.38726    0.65291   1.00
H2       0.57760    0.32441    0.65992   1.00
C6       0.42168    0.40271    0.67968   1.00
H2       0.42240    0.36522    0.73060   1.00
H2       0.46726    0.39026    0.72155   1.00
H2       0.55822    0.41257    0.65548   1.00
H2       0.60380    0.39194    0.67241   1.00
H2       0.58898    0.38569    0.62234   1.00
H2       0.44178    0.41314    0.65647   1.00
H2       0.39620    0.38817    0.66587   1.00
H2       0.41102    0.42841    0.69632   1.00
C4       0.25067    -0.02067   0.74961   1.00
C4       0.24933    0.02067    0.75039   1.00
C3       0.23627    -0.04244   0.71733   1.00
C3       0.22857    0.04244    0.72177   1.00
C4       0.26646    -0.04150   0.78183   1.00
C4       0.26933    0.04150    0.78017   1.00
C2       0.24967    -0.10352   0.74946   1.00
C2       0.24970    0.10352    0.74945   1.00
C3       0.23553    -0.08310   0.71760   1.00
C3       0.22918    0.08310    0.72127   1.00
C3       0.26547    -0.08306   0.78101   1.00
C3       0.26912    0.08306    0.77890   1.00
H1       0.22617    -0.02888   0.69086   1.00
H1       0.21070    0.02888    0.69979   1.00
C5       0.28331    -0.02065   0.81366   1.00
C5       0.28848    0.02065    0.81068   1.00
H1       0.22409    -0.09886   0.69272   1.00
H1       0.21335    0.09886    0.69892   1.00
H1       0.27735    -0.10053   0.80431   1.00
H1       0.28336    0.10053    0.80084   1.00
C6       0.29422    -0.04234   0.85112   1.00
C6       0.31546    0.04234    0.83885   1.00
H2       0.28915    -0.02358   0.87702   1.00
H2       0.27467    -0.06737   0.85673   1.00
C6       0.33648    -0.05724   0.84949   1.00
H2       0.34043    0.02358    0.84742   1.00
H2       0.33010    0.06737    0.82473   1.00
C6       0.29292    0.05724    0.87464   1.00
H2       0.35724    -0.03274   0.84476   1.00
C6       0.34709    -0.07832   0.88726   1.00
H2       0.34008    -0.07760   0.82441   1.00
C6       0.32032    0.07832    0.90271   1.00
H2       0.26940    0.07760    0.86522   1.00
H2       0.27845    0.03274    0.89026   1.00
H2       0.34452    -0.05822   0.91257   1.00
H2       0.32759    -0.10380   0.89194   1.00
H2       0.37766    -0.08898   0.88569   1.00
H2       0.34353    0.05822    0.91314   1.00
H2       0.33413    0.10380    0.88817   1.00
H2       0.30368    0.08898    0.92841   1.00
C4       0.24961    0.25067    0.47933   1.00
C4       0.25039    0.24933    0.52067   1.00
C3       0.21733    0.23627    0.45756   1.00
C3       0.22177    0.22857    0.54244   1.00
C4       0.28183    0.26646    0.45850   1.00
C4       0.28017    0.26933    0.54150   1.00
C2       0.24946    0.24967    0.39648   1.00
C2       0.24945    0.24970    0.60352   1.00
C3       0.21760    0.23553    0.41690   1.00
C3       0.22127    0.22918    0.58310   1.00
C3       0.28101    0.26547    0.41694   1.00
C3       0.27890    0.26912    0.58306   1.00
H1       0.19086    0.22617    0.47112   1.00
H1       0.19979    0.21070    0.52888   1.00
C5       0.31366    0.28331    0.47935   1.00
C5       0.31068    0.28848    0.52065   1.00
H1       0.19272    0.22409    0.40114   1.00
H1       0.19892    0.21335    0.59886   1.00
H1       0.30431    0.27735    0.39947   1.00
H1       0.30084    0.28336    0.60053   1.00
C6       0.35112    0.29422    0.45766   1.00
C6       0.33885    0.31546    0.54234   1.00
H2       0.37702    0.28915    0.47642   1.00
H2       0.35673    0.27467    0.43263   1.00
C6       0.34949    0.33648    0.44276   1.00
H2       0.34742    0.34043    0.52358   1.00
H2       0.32473    0.33010    0.56737   1.00
C6       0.37464    0.29292    0.55724   1.00
H2       0.34476    0.35724    0.46726   1.00
C6       0.38726    0.34709    0.42168   1.00
H2       0.32441    0.34008    0.42240   1.00
C6       0.40271    0.32032    0.57832   1.00
H2       0.36522    0.26940    0.57760   1.00
H2       0.39026    0.27845    0.53274   1.00
H2       0.41257    0.34452    0.44178   1.00
H2       0.39194    0.32759    0.39620   1.00
H2       0.38569    0.37766    0.41102   1.00
H2       0.41314    0.34353    0.55822   1.00
H2       0.38817    0.33413    0.60380   1.00
H2       0.42841    0.30368    0.58898   1.00
C4       0.24961    0.74933    0.52067   1.00
C4       0.25039    0.75067    0.47933   1.00
C3       0.21733    0.76373    0.54244   1.00
C3       0.22177    0.77143    0.45756   1.00
C4       0.28183    0.73354    0.54150   1.00
C4       0.28017    0.73067    0.45850   1.00
C2       0.24946    0.75033    0.60352   1.00
C2       0.24945    0.75030    0.39648   1.00
C3       0.21760    0.76447    0.58310   1.00
C3       0.22127    0.77082    0.41690   1.00
C3       0.28101    0.73453    0.58306   1.00
C3       0.27890    0.73088    0.41694   1.00
H1       0.19086    0.77383    0.52888   1.00
H1       0.19979    0.78930    0.47112   1.00
C5       0.31366    0.71669    0.52065   1.00
C5       0.31068    0.71152    0.47935   1.00
H1       0.19272    0.77591    0.59886   1.00
H1       0.19892    0.78665    0.40114   1.00
H1       0.30431    0.72265    0.60053   1.00
H1       0.30084    0.71664    0.39947   1.00
C6       0.35112    0.70578    0.54234   1.00
C6       0.33885    0.68454    0.45766   1.00
H2       0.37702    0.71085    0.52358   1.00
H2       0.35673    0.72533    0.56737   1.00
C6       0.34949    0.66352    0.55724   1.00
H2       0.34742    0.65957    0.47642   1.00
H2       0.32473    0.66990    0.43263   1.00
C6       0.37464    0.70708    0.44276   1.00
H2       0.34476    0.64276    0.53274   1.00
C6       0.38726    0.65291    0.57832   1.00
H2       0.32441    0.65992    0.57760   1.00
C6       0.40271    0.67968    0.42168   1.00
H2       0.36522    0.73060    0.42240   1.00
H2       0.39026    0.72155    0.46726   1.00
H2       0.41257    0.65548    0.55822   1.00
H2       0.39194    0.67241    0.60380   1.00
H2       0.38569    0.62234    0.58898   1.00
H2       0.41314    0.65647    0.44178   1.00
H2       0.38817    0.66587    0.39620   1.00
H2       0.42841    0.69632    0.41102   1.00
C4       0.24933    1.02067    0.24961   1.00
C4       0.25067    0.97933    0.25039   1.00
C3       0.26373    1.04244    0.21733   1.00
C3       0.27143    0.95756    0.22177   1.00
C4       0.23354    1.04150    0.28183   1.00
C4       0.23067    0.95850    0.28017   1.00
C2       0.25033    1.10352    0.24946   1.00
C2       0.25030    0.89648    0.24945   1.00
C3       0.26447    1.08310    0.21760   1.00
C3       0.27082    0.91690    0.22127   1.00
C3       0.23453    1.08306    0.28101   1.00
C3       0.23088    0.91694    0.27890   1.00
H1       0.27383    1.02888    0.19086   1.00
H1       0.28930    0.97112    0.19979   1.00
C5       0.21669    1.02065    0.31366   1.00
C5       0.21152    0.97935    0.31068   1.00
H1       0.27591    1.09886    0.19272   1.00
H1       0.28665    0.90114    0.19892   1.00
H1       0.22265    1.10053    0.30431   1.00
H1       0.21664    0.89947    0.30084   1.00
C6       0.20578    1.04234    0.35112   1.00
C6       0.18454    0.95766    0.33885   1.00
H2       0.21085    1.02358    0.37702   1.00
H2       0.22533    1.06737    0.35673   1.00
C6       0.16352    1.05724    0.34949   1.00
H2       0.15957    0.97642    0.34742   1.00
H2       0.16990    0.93263    0.32473   1.00
C6       0.20708    0.94276    0.37464   1.00
H2       0.14276    1.03274    0.34476   1.00
C6       0.15291    1.07832    0.38726   1.00
H2       0.15992    1.07760    0.32441   1.00
C6       0.17968    0.92168    0.40271   1.00
H2       0.23060    0.92240    0.36522   1.00
H2       0.22155    0.96726    0.39026   1.00
H2       0.15548    1.05822    0.41257   1.00
H2       0.17241    1.10380    0.39194   1.00
H2       0.12234    1.08898    0.38569   1.00
H2       0.15647    0.94178    0.41314   1.00
H2       0.16587    0.89620    0.38817   1.00
H2       0.19632    0.91102    0.42841   1.00
C4       -0.02067   0.74961    0.25067   1.00
C4       0.02067    0.75039    0.24933   1.00
C3       -0.04244   0.71733    0.23627   1.00
C3       0.04244    0.72177    0.22857   1.00
C4       -0.04150   0.78183    0.26646   1.00
C4       0.04150    0.78017    0.26933   1.00
C2       -0.10352   0.74946    0.24967   1.00
C2       0.10352    0.74945    0.24970   1.00
C3       -0.08310   0.71760    0.23553   1.00
C3       0.08310    0.72127    0.22918   1.00
C3       -0.08306   0.78101    0.26547   1.00
C3       0.08306    0.77890    0.26912   1.00
H1       -0.02888   0.69086    0.22617   1.00
H1       0.02888    0.69979    0.21070   1.00
C5       -0.02065   0.81366    0.28331   1.00
C5       0.02065    0.81068    0.28848   1.00
H1       -0.09886   0.69272    0.22409   1.00
H1       0.09886    0.69892    0.21335   1.00
H1       -0.10053   0.80431    0.27735   1.00
H1       0.10053    0.80084    0.28336   1.00
C6       -0.04234   0.85112    0.29422   1.00
C6       0.04234    0.83885    0.31546   1.00
H2       -0.02358   0.87702    0.28915   1.00
H2       -0.06737   0.85673    0.27467   1.00
C6       -0.05724   0.84949    0.33648   1.00
H2       0.02358    0.84742    0.34043   1.00
H2       0.06737    0.82473    0.33010   1.00
C6       0.05724    0.87464    0.29292   1.00
H2       -0.03274   0.84476    0.35724   1.00
C6       -0.07832   0.88726    0.34709   1.00
H2       -0.07760   0.82441    0.34008   1.00
C6       0.07832    0.90271    0.32032   1.00
H2       0.07760    0.86522    0.26940   1.00
H2       0.03274    0.89026    0.27845   1.00
H2       -0.05822   0.91257    0.34452   1.00
H2       -0.10380   0.89194    0.32759   1.00
H2       -0.08898   0.88569    0.37766   1.00
H2       0.05822    0.91314    0.34353   1.00
H2       0.10380    0.88817    0.33413   1.00
H2       0.08898    0.92841    0.30368   1.00
C4       0.52067    0.74961    0.24933   1.00
C4       0.47933    0.75039    0.25067   1.00
C3       0.54244    0.71733    0.26373   1.00
C3       0.45756    0.72177    0.27143   1.00
C4       0.54150    0.78183    0.23354   1.00
C4       0.45850    0.78017    0.23067   1.00
C2       0.60352    0.74946    0.25033   1.00
C2       0.39648    0.74945    0.25030   1.00
C3       0.58310    0.71760    0.26447   1.00
C3       0.41690    0.72127    0.27082   1.00
C3       0.58306    0.78101    0.23453   1.00
C3       0.41694    0.77890    0.23088   1.00
H1       0.52888    0.69086    0.27383   1.00
H1       0.47112    0.69979    0.28930   1.00
C5       0.52065    0.81366    0.21669   1.00
C5       0.47935    0.81068    0.21152   1.00
H1       0.59886    0.69272    0.27591   1.00
H1       0.40114    0.69892    0.28665   1.00
H1       0.60053    0.80431    0.22265   1.00
H1       0.39947    0.80084    0.21664   1.00
C6       0.54234    0.85112    0.20578   1.00
C6       0.45766    0.83885    0.18454   1.00
H2       0.52358    0.87702    0.21085   1.00
H2       0.56737    0.85673    0.22533   1.00
C6       0.55724    0.84949    0.16352   1.00
H2       0.47642    0.84742    0.15957   1.00
H2       0.43263    0.82473    0.16990   1.00
C6       0.44276    0.87464    0.20708   1.00
H2       0.53274    0.84476    0.14276   1.00
C6       0.57832    0.88726    0.15291   1.00
H2       0.57760    0.82441    0.15992   1.00
C6       0.42168    0.90271    0.17968   1.00
H2       0.42240    0.86522    0.23060   1.00
H2       0.46726    0.89026    0.22155   1.00
H2       0.55822    0.91257    0.15548   1.00
H2       0.60380    0.89194    0.17241   1.00
H2       0.58898    0.88569    0.12234   1.00
H2       0.44178    0.91314    0.15647   1.00
H2       0.39620    0.88817    0.16587   1.00
H2       0.41102    0.92841    0.19632   1.00
C4       0.25067    0.47933    0.24961   1.00
C4       0.24933    0.52067    0.25039   1.00
C3       0.23627    0.45756    0.21733   1.00
C3       0.22857    0.54244    0.22177   1.00
C4       0.26646    0.45850    0.28183   1.00
C4       0.26933    0.54150    0.28017   1.00
C2       0.24967    0.39648    0.24946   1.00
C2       0.24970    0.60352    0.24945   1.00
C3       0.23553    0.41690    0.21760   1.00
C3       0.22918    0.58310    0.22127   1.00
C3       0.26547    0.41694    0.28101   1.00
C3       0.26912    0.58306    0.27890   1.00
H1       0.22617    0.47112    0.19086   1.00
H1       0.21070    0.52888    0.19979   1.00
C5       0.28331    0.47935    0.31366   1.00
C5       0.28848    0.52065    0.31068   1.00
H1       0.22409    0.40114    0.19272   1.00
H1       0.21335    0.59886    0.19892   1.00
H1       0.27735    0.39947    0.30431   1.00
H1       0.28336    0.60053    0.30084   1.00
C6       0.29422    0.45766    0.35112   1.00
C6       0.31546    0.54234    0.33885   1.00
H2       0.28915    0.47642    0.37702   1.00
H2       0.27467    0.43263    0.35673   1.00
C6       0.33648    0.44276    0.34949   1.00
H2       0.34043    0.52358    0.34742   1.00
H2       0.33010    0.56737    0.32473   1.00
C6       0.29292    0.55724    0.37464   1.00
H2       0.35724    0.46726    0.34476   1.00
C6       0.34709    0.42168    0.38726   1.00
H2       0.34008    0.42240    0.32441   1.00
C6       0.32032    0.57832    0.40271   1.00
H2       0.26940    0.57760    0.36522   1.00
H2       0.27845    0.53274    0.39026   1.00
H2       0.34452    0.44178    0.41257   1.00
H2       0.32759    0.39620    0.39194   1.00
H2       0.37766    0.41102    0.38569   1.00
H2       0.34353    0.55822    0.41314   1.00
H2       0.33413    0.60380    0.38817   1.00
H2       0.30368    0.58898    0.42841   1.00
C4       0.24961    0.75067    -0.02067   1.00
C4       0.25039    0.74933    0.02067   1.00
C3       0.21733    0.73627    -0.04244   1.00
C3       0.22177    0.72857    0.04244   1.00
C4       0.28183    0.76646    -0.04150   1.00
C4       0.28017    0.76933    0.04150   1.00
C2       0.24946    0.74967    -0.10352   1.00
C2       0.24945    0.74970    0.10352   1.00
C3       0.21760    0.73553    -0.08310   1.00
C3       0.22127    0.72918    0.08310   1.00
C3       0.28101    0.76547    -0.08306   1.00
C3       0.27890    0.76912    0.08306   1.00
H1       0.19086    0.72617    -0.02888   1.00
H1       0.19979    0.71070    0.02888   1.00
C5       0.31366    0.78331    -0.02065   1.00
C5       0.31068    0.78848    0.02065   1.00
H1       0.19272    0.72409    -0.09886   1.00
H1       0.19892    0.71335    0.09886   1.00
H1       0.30431    0.77735    -0.10053   1.00
H1       0.30084    0.78336    0.10053   1.00
C6       0.35112    0.79422    -0.04234   1.00
C6       0.33885    0.81546    0.04234   1.00
H2       0.37702    0.78915    -0.02358   1.00
H2       0.35673    0.77467    -0.06737   1.00
C6       0.34949    0.83648    -0.05724   1.00
H2       0.34742    0.84043    0.02358   1.00
H2       0.32473    0.83010    0.06737   1.00
C6       0.37464    0.79292    0.05724   1.00
H2       0.34476    0.85724    -0.03274   1.00
C6       0.38726    0.84709    -0.07832   1.00
H2       0.32441    0.84008    -0.07760   1.00
C6       0.40271    0.82032    0.07832   1.00
H2       0.36522    0.76940    0.07760   1.00
H2       0.39026    0.77845    0.03274   1.00
H2       0.41257    0.84452    -0.05822   1.00
H2       0.39194    0.82759    -0.10380   1.00
H2       0.38569    0.87766    -0.08898   1.00
H2       0.41314    0.84353    0.05822   1.00
H2       0.38817    0.83413    0.10380   1.00
H2       0.42841    0.80368    0.08898   1.00
C4       0.74961    0.24933    0.52067   1.00
C4       0.75039    0.25067    0.47933   1.00
C3       0.71733    0.26373    0.54244   1.00
C3       0.72177    0.27143    0.45756   1.00
C4       0.78183    0.23354    0.54150   1.00
C4       0.78017    0.23067    0.45850   1.00
C2       0.74946    0.25033    0.60352   1.00
C2       0.74945    0.25030    0.39648   1.00
C3       0.71760    0.26447    0.58310   1.00
C3       0.72127    0.27082    0.41690   1.00
C3       0.78101    0.23453    0.58306   1.00
C3       0.77890    0.23088    0.41694   1.00
H1       0.69086    0.27383    0.52888   1.00
H1       0.69979    0.28930    0.47112   1.00
C5       0.81366    0.21669    0.52065   1.00
C5       0.81068    0.21152    0.47935   1.00
H1       0.69272    0.27591    0.59886   1.00
H1       0.69892    0.28665    0.40114   1.00
H1       0.80431    0.22265    0.60053   1.00
H1       0.80084    0.21664    0.39947   1.00
C6       0.85112    0.20578    0.54234   1.00
C6       0.83885    0.18454    0.45766   1.00
H2       0.87702    0.21085    0.52358   1.00
H2       0.85673    0.22533    0.56737   1.00
C6       0.84949    0.16352    0.55724   1.00
H2       0.84742    0.15957    0.47642   1.00
H2       0.82473    0.16990    0.43263   1.00
C6       0.87464    0.20708    0.44276   1.00
H2       0.84476    0.14276    0.53274   1.00
C6       0.88726    0.15291    0.57832   1.00
H2       0.82441    0.15992    0.57760   1.00
C6       0.90271    0.17968    0.42168   1.00
H2       0.86522    0.23060    0.42240   1.00
H2       0.89026    0.22155    0.46726   1.00
H2       0.91257    0.15548    0.55822   1.00
H2       0.89194    0.17241    0.60380   1.00
H2       0.88569    0.12234    0.58898   1.00
H2       0.91314    0.15647    0.44178   1.00
H2       0.88817    0.16587    0.39620   1.00
H2       0.92841    0.19632    0.41102   1.00
C4       0.74933    0.52067    0.24961   1.00
C4       0.75067    0.47933    0.25039   1.00
C3       0.76373    0.54244    0.21733   1.00
C3       0.77143    0.45756    0.22177   1.00
C4       0.73354    0.54150    0.28183   1.00
C4       0.73067    0.45850    0.28017   1.00
C2       0.75033    0.60352    0.24946   1.00
C2       0.75030    0.39648    0.24945   1.00
C3       0.76447    0.58310    0.21760   1.00
C3       0.77082    0.41690    0.22127   1.00
C3       0.73453    0.58306    0.28101   1.00
C3       0.73088    0.41694    0.27890   1.00
H1       0.77383    0.52888    0.19086   1.00
H1       0.78930    0.47112    0.19979   1.00
C5       0.71669    0.52065    0.31366   1.00
C5       0.71152    0.47935    0.31068   1.00
H1       0.77591    0.59886    0.19272   1.00
H1       0.78665    0.40114    0.19892   1.00
H1       0.72265    0.60053    0.30431   1.00
H1       0.71664    0.39947    0.30084   1.00
C6       0.70578    0.54234    0.35112   1.00
C6       0.68454    0.45766    0.33885   1.00
H2       0.71085    0.52358    0.37702   1.00
H2       0.72533    0.56737    0.35673   1.00
C6       0.66352    0.55724    0.34949   1.00
H2       0.65957    0.47642    0.34742   1.00
H2       0.66990    0.43263    0.32473   1.00
C6       0.70708    0.44276    0.37464   1.00
H2       0.64276    0.53274    0.34476   1.00
C6       0.65291    0.57832    0.38726   1.00
H2       0.65992    0.57760    0.32441   1.00
C6       0.67968    0.42168    0.40271   1.00
H2       0.73060    0.42240    0.36522   1.00
H2       0.72155    0.46726    0.39026   1.00
H2       0.65548    0.55822    0.41257   1.00
H2       0.67241    0.60380    0.39194   1.00
H2       0.62234    0.58898    0.38569   1.00
H2       0.65647    0.44178    0.41314   1.00
H2       0.66587    0.39620    0.38817   1.00
H2       0.69632    0.41102    0.42841   1.00
C4       0.47933    0.24961    0.25067   1.00
C4       0.52067    0.25039    0.24933   1.00
C3       0.45756    0.21733    0.23627   1.00
C3       0.54244    0.22177    0.22857   1.00
C4       0.45850    0.28183    0.26646   1.00
C4       0.54150    0.28017    0.26933   1.00
C2       0.39648    0.24946    0.24967   1.00
C2       0.60352    0.24945    0.24970   1.00
C3       0.41690    0.21760    0.23553   1.00
C3       0.58310    0.22127    0.22918   1.00
C3       0.41694    0.28101    0.26547   1.00
C3       0.58306    0.27890    0.26912   1.00
H1       0.47112    0.19086    0.22617   1.00
H1       0.52888    0.19979    0.21070   1.00
C5       0.47935    0.31366    0.28331   1.00
C5       0.52065    0.31068    0.28848   1.00
H1       0.40114    0.19272    0.22409   1.00
H1       0.59886    0.19892    0.21335   1.00
H1       0.39947    0.30431    0.27735   1.00
H1       0.60053    0.30084    0.28336   1.00
C6       0.45766    0.35112    0.29422   1.00
C6       0.54234    0.33885    0.31546   1.00
H2       0.47642    0.37702    0.28915   1.00
H2       0.43263    0.35673    0.27467   1.00
C6       0.44276    0.34949    0.33648   1.00
H2       0.52358    0.34742    0.34043   1.00
H2       0.56737    0.32473    0.33010   1.00
C6       0.55724    0.37464    0.29292   1.00
H2       0.46726    0.34476    0.35724   1.00
C6       0.42168    0.38726    0.34709   1.00
H2       0.42240    0.32441    0.34008   1.00
C6       0.57832    0.40271    0.32032   1.00
H2       0.57760    0.36522    0.26940   1.00
H2       0.53274    0.39026    0.27845   1.00
H2       0.44178    0.41257    0.34452   1.00
H2       0.39620    0.39194    0.32759   1.00
H2       0.41102    0.38569    0.37766   1.00
H2       0.55822    0.41314    0.34353   1.00
H2       0.60380    0.38817    0.33413   1.00
H2       0.58898    0.42841    0.30368   1.00
C4       1.02067    0.24961    0.24933   1.00
C4       0.97933    0.25039    0.25067   1.00
C3       1.04244    0.21733    0.26373   1.00
C3       0.95756    0.22177    0.27143   1.00
C4       1.04150    0.28183    0.23354   1.00
C4       0.95850    0.28017    0.23067   1.00
C2       1.10352    0.24946    0.25033   1.00
C2       0.89648    0.24945    0.25030   1.00
C3       1.08310    0.21760    0.26447   1.00
C3       0.91690    0.22127    0.27082   1.00
C3       1.08306    0.28101    0.23453   1.00
C3       0.91694    0.27890    0.23088   1.00
H1       1.02888    0.19086    0.27383   1.00
H1       0.97112    0.19979    0.28930   1.00
C5       1.02065    0.31366    0.21669   1.00
C5       0.97935    0.31068    0.21152   1.00
H1       1.09886    0.19272    0.27591   1.00
H1       0.90114    0.19892    0.28665   1.00
H1       1.10053    0.30431    0.22265   1.00
H1       0.89947    0.30084    0.21664   1.00
C6       1.04234    0.35112    0.20578   1.00
C6       0.95766    0.33885    0.18454   1.00
H2       1.02358    0.37702    0.21085   1.00
H2       1.06737    0.35673    0.22533   1.00
C6       1.05724    0.34949    0.16352   1.00
H2       0.97642    0.34742    0.15957   1.00
H2       0.93263    0.32473    0.16990   1.00
C6       0.94276    0.37464    0.20708   1.00
H2       1.03274    0.34476    0.14276   1.00
C6       1.07832    0.38726    0.15291   1.00
H2       1.07760    0.32441    0.15992   1.00
C6       0.92168    0.40271    0.17968   1.00
H2       0.92240    0.36522    0.23060   1.00
H2       0.96726    0.39026    0.22155   1.00
H2       1.05822    0.41257    0.15548   1.00
H2       1.10380    0.39194    0.17241   1.00
H2       1.08898    0.38569    0.12234   1.00
H2       0.94178    0.41314    0.15647   1.00
H2       0.89620    0.38817    0.16587   1.00
H2       0.91102    0.42841    0.19632   1.00
C4       0.75067    -0.02067   0.24961   1.00
C4       0.74933    0.02067    0.25039   1.00
C3       0.73627    -0.04244   0.21733   1.00
C3       0.72857    0.04244    0.22177   1.00
C4       0.76646    -0.04150   0.28183   1.00
C4       0.76933    0.04150    0.28017   1.00
C2       0.74967    -0.10352   0.24946   1.00
C2       0.74970    0.10352    0.24945   1.00
C3       0.73553    -0.08310   0.21760   1.00
C3       0.72918    0.08310    0.22127   1.00
C3       0.76547    -0.08306   0.28101   1.00
C3       0.76912    0.08306    0.27890   1.00
H1       0.72617    -0.02888   0.19086   1.00
H1       0.71070    0.02888    0.19979   1.00
C5       0.78331    -0.02065   0.31366   1.00
C5       0.78848    0.02065    0.31068   1.00
H1       0.72409    -0.09886   0.19272   1.00
H1       0.71335    0.09886    0.19892   1.00
H1       0.77735    -0.10053   0.30431   1.00
H1       0.78336    0.10053    0.30084   1.00
C6       0.79422    -0.04234   0.35112   1.00
C6       0.81546    0.04234    0.33885   1.00
H2       0.78915    -0.02358   0.37702   1.00
H2       0.77467    -0.06737   0.35673   1.00
C6       0.83648    -0.05724   0.34949   1.00
H2       0.84043    0.02358    0.34742   1.00
H2       0.83010    0.06737    0.32473   1.00
C6       0.79292    0.05724    0.37464   1.00
H2       0.85724    -0.03274   0.34476   1.00
C6       0.84709    -0.07832   0.38726   1.00
H2       0.84008    -0.07760   0.32441   1.00
C6       0.82032    0.07832    0.40271   1.00
H2       0.76940    0.07760    0.36522   1.00
H2       0.77845    0.03274    0.39026   1.00
H2       0.84452    -0.05822   0.41257   1.00
H2       0.82759    -0.10380   0.39194   1.00
H2       0.87766    -0.08898   0.38569   1.00
H2       0.84353    0.05822    0.41314   1.00
H2       0.83413    0.10380    0.38817   1.00
H2       0.80368    0.08898    0.42841   1.00
C4       0.74961    0.25067    -0.02067   1.00
C4       0.75039    0.24933    0.02067   1.00
C3       0.71733    0.23627    -0.04244   1.00
C3       0.72177    0.22857    0.04244   1.00
C4       0.78183    0.26646    -0.04150   1.00
C4       0.78017    0.26933    0.04150   1.00
C2       0.74946    0.24967    -0.10352   1.00
C2       0.74945    0.24970    0.10352   1.00
C3       0.71760    0.23553    -0.08310   1.00
C3       0.72127    0.22918    0.08310   1.00
C3       0.78101    0.26547    -0.08306   1.00
C3       0.77890    0.26912    0.08306   1.00
H1       0.69086    0.22617    -0.02888   1.00
H1       0.69979    0.21070    0.02888   1.00
C5       0.81366    0.28331    -0.02065   1.00
C5       0.81068    0.28848    0.02065   1.00
H1       0.69272    0.22409    -0.09886   1.00
H1       0.69892    0.21335    0.09886   1.00
H1       0.80431    0.27735    -0.10053   1.00
H1       0.80084    0.28336    0.10053   1.00
C6       0.85112    0.29422    -0.04234   1.00
C6       0.83885    0.31546    0.04234   1.00
H2       0.87702    0.28915    -0.02358   1.00
H2       0.85673    0.27467    -0.06737   1.00
C6       0.84949    0.33648    -0.05724   1.00
H2       0.84742    0.34043    0.02358   1.00
H2       0.82473    0.33010    0.06737   1.00
C6       0.87464    0.29292    0.05724   1.00
H2       0.84476    0.35724    -0.03274   1.00
C6       0.88726    0.34709    -0.07832   1.00
H2       0.82441    0.34008    -0.07760   1.00
C6       0.90271    0.32032    0.07832   1.00
H2       0.86522    0.26940    0.07760   1.00
H2       0.89026    0.27845    0.03274   1.00
H2       0.91257    0.34452    -0.05822   1.00
H2       0.89194    0.32759    -0.10380   1.00
H2       0.88569    0.37766    -0.08898   1.00
H2       0.91314    0.34353    0.05822   1.00
H2       0.88817    0.33413    0.10380   1.00
H2       0.92841    0.30368    0.08898   1.00
C4       0.99961    0.99933    1.27067   1.00
C4       1.00039    1.00067    1.22933   1.00
C3       0.96733    1.01373    1.29244   1.00
C3       0.97177    1.02143    1.20756   1.00
C4       1.03183    0.98354    1.29150   1.00
C4       1.03017    0.98067    1.20850   1.00
C2       0.99946    1.00033    1.35352   1.00
C2       0.99945    1.00030    1.14648   1.00
C3       0.96760    1.01447    1.33310   1.00
C3       0.97127    1.02082    1.16690   1.00
C3       1.03101    0.98453    1.33306   1.00
C3       1.02890    0.98088    1.16694   1.00
H1       0.94086    1.02383    1.27888   1.00
H1       0.94979    1.03930    1.22112   1.00
C5       1.06366    0.96669    1.27065   1.00
C5       1.06068    0.96152    1.22935   1.00
H1       0.94272    1.02591    1.34886   1.00
H1       0.94892    1.03665    1.15114   1.00
H1       1.05431    0.97265    1.35053   1.00
H1       1.05084    0.96664    1.14947   1.00
C6       1.10112    0.95578    1.29234   1.00
C6       1.08885    0.93454    1.20766   1.00
H2       1.12702    0.96085    1.27358   1.00
H2       1.10673    0.97533    1.31737   1.00
C6       1.09949    0.91352    1.30724   1.00
H2       1.09742    0.90957    1.22642   1.00
H2       1.07473    0.91990    1.18263   1.00
C6       1.12464    0.95708    1.19276   1.00
H2       1.09476    0.89276    1.28274   1.00
C6       1.13726    0.90291    1.32832   1.00
H2       1.07441    0.90992    1.32760   1.00
C6       1.15271    0.92968    1.17168   1.00
H2       1.11522    0.98060    1.17240   1.00
H2       1.14026    0.97155    1.21726   1.00
H2       1.16257    0.90548    1.30822   1.00
H2       1.14194    0.92241    1.35380   1.00
H2       1.13569    0.87234    1.33898   1.00
H2       1.16314    0.90647    1.19178   1.00
H2       1.13817    0.91587    1.14620   1.00
H2       1.17841    0.94632    1.16102   1.00
C4       0.99933    1.27067    0.99961   1.00
C4       1.00067    1.22933    1.00039   1.00
C3       1.01373    1.29244    0.96733   1.00
C3       1.02143    1.20756    0.97177   1.00
C4       0.98354    1.29150    1.03183   1.00
C4       0.98067    1.20850    1.03017   1.00
C2       1.00033    1.35352    0.99946   1.00
C2       1.00030    1.14648    0.99945   1.00
C3       1.01447    1.33310    0.96760   1.00
C3       1.02082    1.16690    0.97127   1.00
C3       0.98453    1.33306    1.03101   1.00
C3       0.98088    1.16694    1.02890   1.00
H1       1.02383    1.27888    0.94086   1.00
H1       1.03930    1.22112    0.94979   1.00
C5       0.96669    1.27065    1.06366   1.00
C5       0.96152    1.22935    1.06068   1.00
H1       1.02591    1.34886    0.94272   1.00
H1       1.03665    1.15114    0.94892   1.00
H1       0.97265    1.35053    1.05431   1.00
H1       0.96664    1.14947    1.05084   1.00
C6       0.95578    1.29234    1.10112   1.00
C6       0.93454    1.20766    1.08885   1.00
H2       0.96085    1.27358    1.12702   1.00
H2       0.97533    1.31737    1.10673   1.00
C6       0.91352    1.30724    1.09949   1.00
H2       0.90957    1.22642    1.09742   1.00
H2       0.91990    1.18263    1.07473   1.00
C6       0.95708    1.19276    1.12464   1.00
H2       0.89276    1.28274    1.09476   1.00
C6       0.90291    1.32832    1.13726   1.00
H2       0.90992    1.32760    1.07441   1.00
C6       0.92968    1.17168    1.15271   1.00
H2       0.98060    1.17240    1.11522   1.00
H2       0.97155    1.21726    1.14026   1.00
H2       0.90548    1.30822    1.16257   1.00
H2       0.92241    1.35380    1.14194   1.00
H2       0.87234    1.33898    1.13569   1.00
H2       0.90647    1.19178    1.16314   1.00
H2       0.91587    1.14620    1.13817   1.00
H2       0.94632    1.16102    1.17841   1.00
C4       0.72933    0.99961    1.00067   1.00
C4       0.77067    1.00039    0.99933   1.00
C3       0.70756    0.96733    0.98627   1.00
C3       0.79244    0.97177    0.97857   1.00
C4       0.70850    1.03183    1.01646   1.00
C4       0.79150    1.03017    1.01933   1.00
C2       0.64648    0.99946    0.99967   1.00
C2       0.85352    0.99945    0.99970   1.00
C3       0.66690    0.96760    0.98553   1.00
C3       0.83310    0.97127    0.97918   1.00
C3       0.66694    1.03101    1.01547   1.00
C3       0.83306    1.02890    1.01912   1.00
H1       0.72112    0.94086    0.97617   1.00
H1       0.77888    0.94979    0.96070   1.00
C5       0.72935    1.06366    1.03331   1.00
C5       0.77065    1.06068    1.03848   1.00
H1       0.65114    0.94272    0.97409   1.00
H1       0.84886    0.94892    0.96335   1.00
H1       0.64947    1.05431    1.02735   1.00
H1       0.85053    1.05084    1.03336   1.00
C6       0.70766    1.10112    1.04422   1.00
C6       0.79234    1.08885    1.06546   1.00
H2       0.72642    1.12702    1.03915   1.00
H2       0.68263    1.10673    1.02467   1.00
C6       0.69276    1.09949    1.08648   1.00
H2       0.77358    1.09742    1.09043   1.00
H2       0.81737    1.07473    1.08010   1.00
C6       0.80724    1.12464    1.04292   1.00
H2       0.71726    1.09476    1.10724   1.00
C6       0.67168    1.13726    1.09709   1.00
H2       0.67240    1.07441    1.09008   1.00
C6       0.82832    1.15271    1.07032   1.00
H2       0.82760    1.11522    1.01940   1.00
H2       0.78274    1.14026    1.02845   1.00
H2       0.69178    1.16257    1.09452   1.00
H2       0.64620    1.14194    1.07759   1.00
H2       0.66102    1.13569    1.12766   1.00
H2       0.80822    1.16314    1.09353   1.00
H2       0.85380    1.13817    1.08413   1.00
H2       0.83898    1.17841    1.05368   1.00
C4       1.27067    0.99961    0.99933   1.00
C4       1.22933    1.00039    1.00067   1.00
C3       1.29244    0.96733    1.01373   1.00
C3       1.20756    0.97177    1.02143   1.00
C4       1.29150    1.03183    0.98354   1.00
C4       1.20850    1.03017    0.98067   1.00
C2       1.35352    0.99946    1.00033   1.00
C2       1.14648    0.99945    1.00030   1.00
C3       1.33310    0.96760    1.01447   1.00
C3       1.16690    0.97127    1.02082   1.00
C3       1.33306    1.03101    0.98453   1.00
C3       1.16694    1.02890    0.98088   1.00
H1       1.27888    0.94086    1.02383   1.00
H1       1.22112    0.94979    1.03930   1.00
C5       1.27065    1.06366    0.96669   1.00
C5       1.22935    1.06068    0.96152   1.00
H1       1.34886    0.94272    1.02591   1.00
H1       1.15114    0.94892    1.03665   1.00
H1       1.35053    1.05431    0.97265   1.00
H1       1.14947    1.05084    0.96664   1.00
C6       1.29234    1.10112    0.95578   1.00
C6       1.20766    1.08885    0.93454   1.00
H2       1.27358    1.12702    0.96085   1.00
H2       1.31737    1.10673    0.97533   1.00
C6       1.30724    1.09949    0.91352   1.00
H2       1.22642    1.09742    0.90957   1.00
H2       1.18263    1.07473    0.91990   1.00
C6       1.19276    1.12464    0.95708   1.00
H2       1.28274    1.09476    0.89276   1.00
C6       1.32832    1.13726    0.90291   1.00
H2       1.32760    1.07441    0.90992   1.00
C6       1.17168    1.15271    0.92968   1.00
H2       1.17240    1.11522    0.98060   1.00
H2       1.21726    1.14026    0.97155   1.00
H2       1.30822    1.16257    0.90548   1.00
H2       1.35380    1.14194    0.92241   1.00
H2       1.33898    1.13569    0.87234   1.00
H2       1.19178    1.16314    0.90647   1.00
H2       1.14620    1.13817    0.91587   1.00
H2       1.16102    1.17841    0.94632   1.00
C4       1.00067    0.72933    0.99961   1.00
C4       0.99933    0.77067    1.00039   1.00
C3       0.98627    0.70756    0.96733   1.00
C3       0.97857    0.79244    0.97177   1.00
C4       1.01646    0.70850    1.03183   1.00
C4       1.01933    0.79150    1.03017   1.00
C2       0.99967    0.64648    0.99946   1.00
C2       0.99970    0.85352    0.99945   1.00
C3       0.98553    0.66690    0.96760   1.00
C3       0.97918    0.83310    0.97127   1.00
C3       1.01547    0.66694    1.03101   1.00
C3       1.01912    0.83306    1.02890   1.00
H1       0.97617    0.72112    0.94086   1.00
H1       0.96070    0.77888    0.94979   1.00
C5       1.03331    0.72935    1.06366   1.00
C5       1.03848    0.77065    1.06068   1.00
H1       0.97409    0.65114    0.94272   1.00
H1       0.96335    0.84886    0.94892   1.00
H1       1.02735    0.64947    1.05431   1.00
H1       1.03336    0.85053    1.05084   1.00
C6       1.04422    0.70766    1.10112   1.00
C6       1.06546    0.79234    1.08885   1.00
H2       1.03915    0.72642    1.12702   1.00
H2       1.02467    0.68263    1.10673   1.00
C6       1.08648    0.69276    1.09949   1.00
H2       1.09043    0.77358    1.09742   1.00
H2       1.08010    0.81737    1.07473   1.00
C6       1.04292    0.80724    1.12464   1.00
H2       1.10724    0.71726    1.09476   1.00
C6       1.09709    0.67168    1.13726   1.00
H2       1.09008    0.67240    1.07441   1.00
C6       1.07032    0.82832    1.15271   1.00
H2       1.01940    0.82760    1.11522   1.00
H2       1.02845    0.78274    1.14026   1.00
H2       1.09452    0.69178    1.16257   1.00
H2       1.07759    0.64620    1.14194   1.00
H2       1.12766    0.66102    1.13569   1.00
H2       1.09353    0.80822    1.16314   1.00
H2       1.08413    0.85380    1.13817   1.00
H2       1.05368    0.83898    1.17841   1.00
C4       0.99961    1.00067    0.72933   1.00
C4       1.00039    0.99933    0.77067   1.00
C3       0.96733    0.98627    0.70756   1.00
C3       0.97177    0.97857    0.79244   1.00
C4       1.03183    1.01646    0.70850   1.00
C4       1.03017    1.01933    0.79150   1.00
C2       0.99946    0.99967    0.64648   1.00
C2       0.99945    0.99970    0.85352   1.00
C3       0.96760    0.98553    0.66690   1.00
C3       0.97127    0.97918    0.83310   1.00
C3       1.03101    1.01547    0.66694   1.00
C3       1.02890    1.01912    0.83306   1.00
H1       0.94086    0.97617    0.72112   1.00
H1       0.94979    0.96070    0.77888   1.00
C5       1.06366    1.03331    0.72935   1.00
C5       1.06068    1.03848    0.77065   1.00
H1       0.94272    0.97409    0.65114   1.00
H1       0.94892    0.96335    0.84886   1.00
H1       1.05431    1.02735    0.64947   1.00
H1       1.05084    1.03336    0.85053   1.00
C6       1.10112    1.04422    0.70766   1.00
C6       1.08885    1.06546    0.79234   1.00
H2       1.12702    1.03915    0.72642   1.00
H2       1.10673    1.02467    0.68263   1.00
C6       1.09949    1.08648    0.69276   1.00
H2       1.09742    1.09043    0.77358   1.00
H2       1.07473    1.08010    0.81737   1.00
C6       1.12464    1.04292    0.80724   1.00
H2       1.09476    1.10724    0.71726   1.00
C6       1.13726    1.09709    0.67168   1.00
H2       1.07441    1.09008    0.67240   1.00
C6       1.15271    1.07032    0.82832   1.00
H2       1.11522    1.01940    0.82760   1.00
H2       1.14026    1.02845    0.78274   1.00
H2       1.16257    1.09452    0.69178   1.00
H2       1.14194    1.07759    0.64620   1.00
H2       1.13569    1.12766    0.66102   1.00
H2       1.16314    1.09353    0.80822   1.00
H2       1.13817    1.08413    0.85380   1.00
H2       1.17841    1.05368    0.83898   1.00
C4       0.49961    0.49933    1.27067   1.00
C4       0.50039    0.50067    1.22933   1.00
C3       0.46733    0.51373    1.29244   1.00
C3       0.47177    0.52143    1.20756   1.00
C4       0.53183    0.48354    1.29150   1.00
C4       0.53017    0.48067    1.20850   1.00
C2       0.49946    0.50033    1.35352   1.00
C2       0.49945    0.50030    1.14648   1.00
C3       0.46760    0.51447    1.33310   1.00
C3       0.47127    0.52082    1.16690   1.00
C3       0.53101    0.48453    1.33306   1.00
C3       0.52890    0.48088    1.16694   1.00
H1       0.44086    0.52383    1.27888   1.00
H1       0.44979    0.53930    1.22112   1.00
C5       0.56366    0.46669    1.27065   1.00
C5       0.56068    0.46152    1.22935   1.00
H1       0.44272    0.52591    1.34886   1.00
H1       0.44892    0.53665    1.15114   1.00
H1       0.55431    0.47265    1.35053   1.00
H1       0.55084    0.46664    1.14947   1.00
C6       0.60112    0.45578    1.29234   1.00
C6       0.58885    0.43454    1.20766   1.00
H2       0.62702    0.46085    1.27358   1.00
H2       0.60673    0.47533    1.31737   1.00
C6       0.59949    0.41352    1.30724   1.00
H2       0.59742    0.40957    1.22642   1.00
H2       0.57473    0.41990    1.18263   1.00
C6       0.62464    0.45708    1.19276   1.00
H2       0.59476    0.39276    1.28274   1.00
C6       0.63726    0.40291    1.32832   1.00
H2       0.57441    0.40992    1.32760   1.00
C6       0.65271    0.42968    1.17168   1.00
H2       0.61522    0.48060    1.17240   1.00
H2       0.64026    0.47155    1.21726   1.00
H2       0.66257    0.40548    1.30822   1.00
H2       0.64194    0.42241    1.35380   1.00
H2       0.63569    0.37234    1.33898   1.00
H2       0.66314    0.40647    1.19178   1.00
H2       0.63817    0.41587    1.14620   1.00
H2       0.67841    0.44632    1.16102   1.00
C4       0.49933    0.77067    0.99961   1.00
C4       0.50067    0.72933    1.00039   1.00
C3       0.51373    0.79244    0.96733   1.00
C3       0.52143    0.70756    0.97177   1.00
C4       0.48354    0.79150    1.03183   1.00
C4       0.48067    0.70850    1.03017   1.00
C2       0.50033    0.85352    0.99946   1.00
C2       0.50030    0.64648    0.99945   1.00
C3       0.51447    0.83310    0.96760   1.00
C3       0.52082    0.66690    0.97127   1.00
C3       0.48453    0.83306    1.03101   1.00
C3       0.48088    0.66694    1.02890   1.00
H1       0.52383    0.77888    0.94086   1.00
H1       0.53930    0.72112    0.94979   1.00
C5       0.46669    0.77065    1.06366   1.00
C5       0.46152    0.72935    1.06068   1.00
H1       0.52591    0.84886    0.94272   1.00
H1       0.53665    0.65114    0.94892   1.00
H1       0.47265    0.85053    1.05431   1.00
H1       0.46664    0.64947    1.05084   1.00
C6       0.45578    0.79234    1.10112   1.00
C6       0.43454    0.70766    1.08885   1.00
H2       0.46085    0.77358    1.12702   1.00
H2       0.47533    0.81737    1.10673   1.00
C6       0.41352    0.80724    1.09949   1.00
H2       0.40957    0.72642    1.09742   1.00
H2       0.41990    0.68263    1.07473   1.00
C6       0.45708    0.69276    1.12464   1.00
H2       0.39276    0.78274    1.09476   1.00
C6       0.40291    0.82832    1.13726   1.00
H2       0.40992    0.82760    1.07441   1.00
C6       0.42968    0.67168    1.15271   1.00
H2       0.48060    0.67240    1.11522   1.00
H2       0.47155    0.71726    1.14026   1.00
H2       0.40548    0.80822    1.16257   1.00
H2       0.42241    0.85380    1.14194   1.00
H2       0.37234    0.83898    1.13569   1.00
H2       0.40647    0.69178    1.16314   1.00
H2       0.41587    0.64620    1.13817   1.00
H2       0.44632    0.66102    1.17841   1.00
C4       0.22933    0.49961    1.00067   1.00
C4       0.27067    0.50039    0.99933   1.00
C3       0.20756    0.46733    0.98627   1.00
C3       0.29244    0.47177    0.97857   1.00
C4       0.20850    0.53183    1.01646   1.00
C4       0.29150    0.53017    1.01933   1.00
C2       0.14648    0.49946    0.99967   1.00
C2       0.35352    0.49945    0.99970   1.00
C3       0.16690    0.46760    0.98553   1.00
C3       0.33310    0.47127    0.97918   1.00
C3       0.16694    0.53101    1.01547   1.00
C3       0.33306    0.52890    1.01912   1.00
H1       0.22112    0.44086    0.97617   1.00
H1       0.27888    0.44979    0.96070   1.00
C5       0.22935    0.56366    1.03331   1.00
C5       0.27065    0.56068    1.03848   1.00
H1       0.15114    0.44272    0.97409   1.00
H1       0.34886    0.44892    0.96335   1.00
H1       0.14947    0.55431    1.02735   1.00
H1       0.35053    0.55084    1.03336   1.00
C6       0.20766    0.60112    1.04422   1.00
C6       0.29234    0.58885    1.06546   1.00
H2       0.22642    0.62702    1.03915   1.00
H2       0.18263    0.60673    1.02467   1.00
C6       0.19276    0.59949    1.08648   1.00
H2       0.27358    0.59742    1.09043   1.00
H2       0.31737    0.57473    1.08010   1.00
C6       0.30724    0.62464    1.04292   1.00
H2       0.21726    0.59476    1.10724   1.00
C6       0.17168    0.63726    1.09709   1.00
H2       0.17240    0.57441    1.09008   1.00
C6       0.32832    0.65271    1.07032   1.00
H2       0.32760    0.61522    1.01940   1.00
H2       0.28274    0.64026    1.02845   1.00
H2       0.19178    0.66257    1.09452   1.00
H2       0.14620    0.64194    1.07759   1.00
H2       0.16102    0.63569    1.12766   1.00
H2       0.30822    0.66314    1.09353   1.00
H2       0.35380    0.63817    1.08413   1.00
H2       0.33898    0.67841    1.05368   1.00
C4       0.77067    0.49961    0.99933   1.00
C4       0.72933    0.50039    1.00067   1.00
C3       0.79244    0.46733    1.01373   1.00
C3       0.70756    0.47177    1.02143   1.00
C4       0.79150    0.53183    0.98354   1.00
C4       0.70850    0.53017    0.98067   1.00
C2       0.85352    0.49946    1.00033   1.00
C2       0.64648    0.49945    1.00030   1.00
C3       0.83310    0.46760    1.01447   1.00
C3       0.66690    0.47127    1.02082   1.00
C3       0.83306    0.53101    0.98453   1.00
C3       0.66694    0.52890    0.98088   1.00
H1       0.77888    0.44086    1.02383   1.00
H1       0.72112    0.44979    1.03930   1.00
C5       0.77065    0.56366    0.96669   1.00
C5       0.72935    0.56068    0.96152   1.00
H1       0.84886    0.44272    1.02591   1.00
H1       0.65114    0.44892    1.03665   1.00
H1       0.85053    0.55431    0.97265   1.00
H1       0.64947    0.55084    0.96664   1.00
C6       0.79234    0.60112    0.95578   1.00
C6       0.70766    0.58885    0.93454   1.00
H2       0.77358    0.62702    0.96085   1.00
H2       0.81737    0.60673    0.97533   1.00
C6       0.80724    0.59949    0.91352   1.00
H2       0.72642    0.59742    0.90957   1.00
H2       0.68263    0.57473    0.91990   1.00
C6       0.69276    0.62464    0.95708   1.00
H2       0.78274    0.59476    0.89276   1.00
C6       0.82832    0.63726    0.90291   1.00
H2       0.82760    0.57441    0.90992   1.00
C6       0.67168    0.65271    0.92968   1.00
H2       0.67240    0.61522    0.98060   1.00
H2       0.71726    0.64026    0.97155   1.00
H2       0.80822    0.66257    0.90548   1.00
H2       0.85380    0.64194    0.92241   1.00
H2       0.83898    0.63569    0.87234   1.00
H2       0.69178    0.66314    0.90647   1.00
H2       0.64620    0.63817    0.91587   1.00
H2       0.66102    0.67841    0.94632   1.00
C4       0.50067    0.22933    0.99961   1.00
C4       0.49933    0.27067    1.00039   1.00
C3       0.48627    0.20756    0.96733   1.00
C3       0.47857    0.29244    0.97177   1.00
C4       0.51646    0.20850    1.03183   1.00
C4       0.51933    0.29150    1.03017   1.00
C2       0.49967    0.14648    0.99946   1.00
C2       0.49970    0.35352    0.99945   1.00
C3       0.48553    0.16690    0.96760   1.00
C3       0.47918    0.33310    0.97127   1.00
C3       0.51547    0.16694    1.03101   1.00
C3       0.51912    0.33306    1.02890   1.00
H1       0.47617    0.22112    0.94086   1.00
H1       0.46070    0.27888    0.94979   1.00
C5       0.53331    0.22935    1.06366   1.00
C5       0.53848    0.27065    1.06068   1.00
H1       0.47409    0.15114    0.94272   1.00
H1       0.46335    0.34886    0.94892   1.00
H1       0.52735    0.14947    1.05431   1.00
H1       0.53336    0.35053    1.05084   1.00
C6       0.54422    0.20766    1.10112   1.00
C6       0.56546    0.29234    1.08885   1.00
H2       0.53915    0.22642    1.12702   1.00
H2       0.52467    0.18263    1.10673   1.00
C6       0.58648    0.19276    1.09949   1.00
H2       0.59043    0.27358    1.09742   1.00
H2       0.58010    0.31737    1.07473   1.00
C6       0.54292    0.30724    1.12464   1.00
H2       0.60724    0.21726    1.09476   1.00
C6       0.59709    0.17168    1.13726   1.00
H2       0.59008    0.17240    1.07441   1.00
C6       0.57032    0.32832    1.15271   1.00
H2       0.51940    0.32760    1.11522   1.00
H2       0.52845    0.28274    1.14026   1.00
H2       0.59452    0.19178    1.16257   1.00
H2       0.57759    0.14620    1.14194   1.00
H2       0.62766    0.16102    1.13569   1.00
H2       0.59353    0.30822    1.16314   1.00
H2       0.58413    0.35380    1.13817   1.00
H2       0.55368    0.33898    1.17841   1.00
C4       0.49961    0.50067    0.72933   1.00
C4       0.50039    0.49933    0.77067   1.00
C3       0.46733    0.48627    0.70756   1.00
C3       0.47177    0.47857    0.79244   1.00
C4       0.53183    0.51646    0.70850   1.00
C4       0.53017    0.51933    0.79150   1.00
C2       0.49946    0.49967    0.64648   1.00
C2       0.49945    0.49970    0.85352   1.00
C3       0.46760    0.48553    0.66690   1.00
C3       0.47127    0.47918    0.83310   1.00
C3       0.53101    0.51547    0.66694   1.00
C3       0.52890    0.51912    0.83306   1.00
H1       0.44086    0.47617    0.72112   1.00
H1       0.44979    0.46070    0.77888   1.00
C5       0.56366    0.53331    0.72935   1.00
C5       0.56068    0.53848    0.77065   1.00
H1       0.44272    0.47409    0.65114   1.00
H1       0.44892    0.46335    0.84886   1.00
H1       0.55431    0.52735    0.64947   1.00
H1       0.55084    0.53336    0.85053   1.00
C6       0.60112    0.54422    0.70766   1.00
C6       0.58885    0.56546    0.79234   1.00
H2       0.62702    0.53915    0.72642   1.00
H2       0.60673    0.52467    0.68263   1.00
C6       0.59949    0.58648    0.69276   1.00
H2       0.59742    0.59043    0.77358   1.00
H2       0.57473    0.58010    0.81737   1.00
C6       0.62464    0.54292    0.80724   1.00
H2       0.59476    0.60724    0.71726   1.00
C6       0.63726    0.59709    0.67168   1.00
H2       0.57441    0.59008    0.67240   1.00
C6       0.65271    0.57032    0.82832   1.00
H2       0.61522    0.51940    0.82760   1.00
H2       0.64026    0.52845    0.78274   1.00
H2       0.66257    0.59452    0.69178   1.00
H2       0.64194    0.57759    0.64620   1.00
H2       0.63569    0.62766    0.66102   1.00
H2       0.66314    0.59353    0.80822   1.00
H2       0.63817    0.58413    0.85380   1.00
H2       0.67841    0.55368    0.83898   1.00
C4       0.49961    0.99933    0.77067   1.00
C4       0.50039    1.00067    0.72933   1.00
C3       0.46733    1.01373    0.79244   1.00
C3       0.47177    1.02143    0.70756   1.00
C4       0.53183    0.98354    0.79150   1.00
C4       0.53017    0.98067    0.70850   1.00
C2       0.49946    1.00033    0.85352   1.00
C2       0.49945    1.00030    0.64648   1.00
C3       0.46760    1.01447    0.83310   1.00
C3       0.47127    1.02082    0.66690   1.00
C3       0.53101    0.98453    0.83306   1.00
C3       0.52890    0.98088    0.66694   1.00
H1       0.44086    1.02383    0.77888   1.00
H1       0.44979    1.03930    0.72112   1.00
C5       0.56366    0.96669    0.77065   1.00
C5       0.56068    0.96152    0.72935   1.00
H1       0.44272    1.02591    0.84886   1.00
H1       0.44892    1.03665    0.65114   1.00
H1       0.55431    0.97265    0.85053   1.00
H1       0.55084    0.96664    0.64947   1.00
C6       0.60112    0.95578    0.79234   1.00
C6       0.58885    0.93454    0.70766   1.00
H2       0.62702    0.96085    0.77358   1.00
H2       0.60673    0.97533    0.81737   1.00
C6       0.59949    0.91352    0.80724   1.00
H2       0.59742    0.90957    0.72642   1.00
H2       0.57473    0.91990    0.68263   1.00
C6       0.62464    0.95708    0.69276   1.00
H2       0.59476    0.89276    0.78274   1.00
C6       0.63726    0.90291    0.82832   1.00
H2       0.57441    0.90992    0.82760   1.00
C6       0.65271    0.92968    0.67168   1.00
H2       0.61522    0.98060    0.67240   1.00
H2       0.64026    0.97155    0.71726   1.00
H2       0.66257    0.90548    0.80822   1.00
H2       0.64194    0.92241    0.85380   1.00
H2       0.63569    0.87234    0.83898   1.00
H2       0.66314    0.90647    0.69178   1.00
H2       0.63817    0.91587    0.64620   1.00
H2       0.67841    0.94632    0.66102   1.00
C4       0.49933    1.27067    0.49961   1.00
C4       0.50067    1.22933    0.50039   1.00
C3       0.51373    1.29244    0.46733   1.00
C3       0.52143    1.20756    0.47177   1.00
C4       0.48354    1.29150    0.53183   1.00
C4       0.48067    1.20850    0.53017   1.00
C2       0.50033    1.35352    0.49946   1.00
C2       0.50030    1.14648    0.49945   1.00
C3       0.51447    1.33310    0.46760   1.00
C3       0.52082    1.16690    0.47127   1.00
C3       0.48453    1.33306    0.53101   1.00
C3       0.48088    1.16694    0.52890   1.00
H1       0.52383    1.27888    0.44086   1.00
H1       0.53930    1.22112    0.44979   1.00
C5       0.46669    1.27065    0.56366   1.00
C5       0.46152    1.22935    0.56068   1.00
H1       0.52591    1.34886    0.44272   1.00
H1       0.53665    1.15114    0.44892   1.00
H1       0.47265    1.35053    0.55431   1.00
H1       0.46664    1.14947    0.55084   1.00
C6       0.45578    1.29234    0.60112   1.00
C6       0.43454    1.20766    0.58885   1.00
H2       0.46085    1.27358    0.62702   1.00
H2       0.47533    1.31737    0.60673   1.00
C6       0.41352    1.30724    0.59949   1.00
H2       0.40957    1.22642    0.59742   1.00
H2       0.41990    1.18263    0.57473   1.00
C6       0.45708    1.19276    0.62464   1.00
H2       0.39276    1.28274    0.59476   1.00
C6       0.40291    1.32832    0.63726   1.00
H2       0.40992    1.32760    0.57441   1.00
C6       0.42968    1.17168    0.65271   1.00
H2       0.48060    1.17240    0.61522   1.00
H2       0.47155    1.21726    0.64026   1.00
H2       0.40548    1.30822    0.66257   1.00
H2       0.42241    1.35380    0.64194   1.00
H2       0.37234    1.33898    0.63569   1.00
H2       0.40647    1.19178    0.66314   1.00
H2       0.41587    1.14620    0.63817   1.00
H2       0.44632    1.16102    0.67841   1.00
C4       0.22933    0.99961    0.50067   1.00
C4       0.27067    1.00039    0.49933   1.00
C3       0.20756    0.96733    0.48627   1.00
C3       0.29244    0.97177    0.47857   1.00
C4       0.20850    1.03183    0.51646   1.00
C4       0.29150    1.03017    0.51933   1.00
C2       0.14648    0.99946    0.49967   1.00
C2       0.35352    0.99945    0.49970   1.00
C3       0.16690    0.96760    0.48553   1.00
C3       0.33310    0.97127    0.47918   1.00
C3       0.16694    1.03101    0.51547   1.00
C3       0.33306    1.02890    0.51912   1.00
H1       0.22112    0.94086    0.47617   1.00
H1       0.27888    0.94979    0.46070   1.00
C5       0.22935    1.06366    0.53331   1.00
C5       0.27065    1.06068    0.53848   1.00
H1       0.15114    0.94272    0.47409   1.00
H1       0.34886    0.94892    0.46335   1.00
H1       0.14947    1.05431    0.52735   1.00
H1       0.35053    1.05084    0.53336   1.00
C6       0.20766    1.10112    0.54422   1.00
C6       0.29234    1.08885    0.56546   1.00
H2       0.22642    1.12702    0.53915   1.00
H2       0.18263    1.10673    0.52467   1.00
C6       0.19276    1.09949    0.58648   1.00
H2       0.27358    1.09742    0.59043   1.00
H2       0.31737    1.07473    0.58010   1.00
C6       0.30724    1.12464    0.54292   1.00
H2       0.21726    1.09476    0.60724   1.00
C6       0.17168    1.13726    0.59709   1.00
H2       0.17240    1.07441    0.59008   1.00
C6       0.32832    1.15271    0.57032   1.00
H2       0.32760    1.11522    0.51940   1.00
H2       0.28274    1.14026    0.52845   1.00
H2       0.19178    1.16257    0.59452   1.00
H2       0.14620    1.14194    0.57759   1.00
H2       0.16102    1.13569    0.62766   1.00
H2       0.30822    1.16314    0.59353   1.00
H2       0.35380    1.13817    0.58413   1.00
H2       0.33898    1.17841    0.55368   1.00
C4       0.77067    0.99961    0.49933   1.00
C4       0.72933    1.00039    0.50067   1.00
C3       0.79244    0.96733    0.51373   1.00
C3       0.70756    0.97177    0.52143   1.00
C4       0.79150    1.03183    0.48354   1.00
C4       0.70850    1.03017    0.48067   1.00
C2       0.85352    0.99946    0.50033   1.00
C2       0.64648    0.99945    0.50030   1.00
C3       0.83310    0.96760    0.51447   1.00
C3       0.66690    0.97127    0.52082   1.00
C3       0.83306    1.03101    0.48453   1.00
C3       0.66694    1.02890    0.48088   1.00
H1       0.77888    0.94086    0.52383   1.00
H1       0.72112    0.94979    0.53930   1.00
C5       0.77065    1.06366    0.46669   1.00
C5       0.72935    1.06068    0.46152   1.00
H1       0.84886    0.94272    0.52591   1.00
H1       0.65114    0.94892    0.53665   1.00
H1       0.85053    1.05431    0.47265   1.00
H1       0.64947    1.05084    0.46664   1.00
C6       0.79234    1.10112    0.45578   1.00
C6       0.70766    1.08885    0.43454   1.00
H2       0.77358    1.12702    0.46085   1.00
H2       0.81737    1.10673    0.47533   1.00
C6       0.80724    1.09949    0.41352   1.00
H2       0.72642    1.09742    0.40957   1.00
H2       0.68263    1.07473    0.41990   1.00
C6       0.69276    1.12464    0.45708   1.00
H2       0.78274    1.09476    0.39276   1.00
C6       0.82832    1.13726    0.40291   1.00
H2       0.82760    1.07441    0.40992   1.00
C6       0.67168    1.15271    0.42968   1.00
H2       0.67240    1.11522    0.48060   1.00
H2       0.71726    1.14026    0.47155   1.00
H2       0.80822    1.16257    0.40548   1.00
H2       0.85380    1.14194    0.42241   1.00
H2       0.83898    1.13569    0.37234   1.00
H2       0.69178    1.16314    0.40647   1.00
H2       0.64620    1.13817    0.41587   1.00
H2       0.66102    1.17841    0.44632   1.00
C4       0.50067    0.72933    0.49961   1.00
C4       0.49933    0.77067    0.50039   1.00
C3       0.48627    0.70756    0.46733   1.00
C3       0.47857    0.79244    0.47177   1.00
C4       0.51646    0.70850    0.53183   1.00
C4       0.51933    0.79150    0.53017   1.00
C2       0.49967    0.64648    0.49946   1.00
C2       0.49970    0.85352    0.49945   1.00
C3       0.48553    0.66690    0.46760   1.00
C3       0.47918    0.83310    0.47127   1.00
C3       0.51547    0.66694    0.53101   1.00
C3       0.51912    0.83306    0.52890   1.00
H1       0.47617    0.72112    0.44086   1.00
H1       0.46070    0.77888    0.44979   1.00
C5       0.53331    0.72935    0.56366   1.00
C5       0.53848    0.77065    0.56068   1.00
H1       0.47409    0.65114    0.44272   1.00
H1       0.46335    0.84886    0.44892   1.00
H1       0.52735    0.64947    0.55431   1.00
H1       0.53336    0.85053    0.55084   1.00
C6       0.54422    0.70766    0.60112   1.00
C6       0.56546    0.79234    0.58885   1.00
H2       0.53915    0.72642    0.62702   1.00
H2       0.52467    0.68263    0.60673   1.00
C6       0.58648    0.69276    0.59949   1.00
H2       0.59043    0.77358    0.59742   1.00
H2       0.58010    0.81737    0.57473   1.00
C6       0.54292    0.80724    0.62464   1.00
H2       0.60724    0.71726    0.59476   1.00
C6       0.59709    0.67168    0.63726   1.00
H2       0.59008    0.67240    0.57441   1.00
C6       0.57032    0.82832    0.65271   1.00
H2       0.51940    0.82760    0.61522   1.00
H2       0.52845    0.78274    0.64026   1.00
H2       0.59452    0.69178    0.66257   1.00
H2       0.57759    0.64620    0.64194   1.00
H2       0.62766    0.66102    0.63569   1.00
H2       0.59353    0.80822    0.66314   1.00
H2       0.58413    0.85380    0.63817   1.00
H2       0.55368    0.83898    0.67841   1.00
C4       0.49961    1.00067    0.22933   1.00
C4       0.50039    0.99933    0.27067   1.00
C3       0.46733    0.98627    0.20756   1.00
C3       0.47177    0.97857    0.29244   1.00
C4       0.53183    1.01646    0.20850   1.00
C4       0.53017    1.01933    0.29150   1.00
C2       0.49946    0.99967    0.14648   1.00
C2       0.49945    0.99970    0.35352   1.00
C3       0.46760    0.98553    0.16690   1.00
C3       0.47127    0.97918    0.33310   1.00
C3       0.53101    1.01547    0.16694   1.00
C3       0.52890    1.01912    0.33306   1.00
H1       0.44086    0.97617    0.22112   1.00
H1       0.44979    0.96070    0.27888   1.00
C5       0.56366    1.03331    0.22935   1.00
C5       0.56068    1.03848    0.27065   1.00
H1       0.44272    0.97409    0.15114   1.00
H1       0.44892    0.96335    0.34886   1.00
H1       0.55431    1.02735    0.14947   1.00
H1       0.55084    1.03336    0.35053   1.00
C6       0.60112    1.04422    0.20766   1.00
C6       0.58885    1.06546    0.29234   1.00
H2       0.62702    1.03915    0.22642   1.00
H2       0.60673    1.02467    0.18263   1.00
C6       0.59949    1.08648    0.19276   1.00
H2       0.59742    1.09043    0.27358   1.00
H2       0.57473    1.08010    0.31737   1.00
C6       0.62464    1.04292    0.30724   1.00
H2       0.59476    1.10724    0.21726   1.00
C6       0.63726    1.09709    0.17168   1.00
H2       0.57441    1.09008    0.17240   1.00
C6       0.65271    1.07032    0.32832   1.00
H2       0.61522    1.01940    0.32760   1.00
H2       0.64026    1.02845    0.28274   1.00
H2       0.66257    1.09452    0.19178   1.00
H2       0.64194    1.07759    0.14620   1.00
H2       0.63569    1.12766    0.16102   1.00
H2       0.66314    1.09353    0.30822   1.00
H2       0.63817    1.08413    0.35380   1.00
H2       0.67841    1.05368    0.33898   1.00
C4       0.99961    0.49933    0.77067   1.00
C4       1.00039    0.50067    0.72933   1.00
C3       0.96733    0.51373    0.79244   1.00
C3       0.97177    0.52143    0.70756   1.00
C4       1.03183    0.48354    0.79150   1.00
C4       1.03017    0.48067    0.70850   1.00
C2       0.99946    0.50033    0.85352   1.00
C2       0.99945    0.50030    0.64648   1.00
C3       0.96760    0.51447    0.83310   1.00
C3       0.97127    0.52082    0.66690   1.00
C3       1.03101    0.48453    0.83306   1.00
C3       1.02890    0.48088    0.66694   1.00
H1       0.94086    0.52383    0.77888   1.00
H1       0.94979    0.53930    0.72112   1.00
C5       1.06366    0.46669    0.77065   1.00
C5       1.06068    0.46152    0.72935   1.00
H1       0.94272    0.52591    0.84886   1.00
H1       0.94892    0.53665    0.65114   1.00
H1       1.05431    0.47265    0.85053   1.00
H1       1.05084    0.46664    0.64947   1.00
C6       1.10112    0.45578    0.79234   1.00
C6       1.08885    0.43454    0.70766   1.00
H2       1.12702    0.46085    0.77358   1.00
H2       1.10673    0.47533    0.81737   1.00
C6       1.09949    0.41352    0.80724   1.00
H2       1.09742    0.40957    0.72642   1.00
H2       1.07473    0.41990    0.68263   1.00
C6       1.12464    0.45708    0.69276   1.00
H2       1.09476    0.39276    0.78274   1.00
C6       1.13726    0.40291    0.82832   1.00
H2       1.07441    0.40992    0.82760   1.00
C6       1.15271    0.42968    0.67168   1.00
H2       1.11522    0.48060    0.67240   1.00
H2       1.14026    0.47155    0.71726   1.00
H2       1.16257    0.40548    0.80822   1.00
H2       1.14194    0.42241    0.85380   1.00
H2       1.13569    0.37234    0.83898   1.00
H2       1.16314    0.40647    0.69178   1.00
H2       1.13817    0.41587    0.64620   1.00
H2       1.17841    0.44632    0.66102   1.00
C4       0.99933    0.77067    0.49961   1.00
C4       1.00067    0.72933    0.50039   1.00
C3       1.01373    0.79244    0.46733   1.00
C3       1.02143    0.70756    0.47177   1.00
C4       0.98354    0.79150    0.53183   1.00
C4       0.98067    0.70850    0.53017   1.00
C2       1.00033    0.85352    0.49946   1.00
C2       1.00030    0.64648    0.49945   1.00
C3       1.01447    0.83310    0.46760   1.00
C3       1.02082    0.66690    0.47127   1.00
C3       0.98453    0.83306    0.53101   1.00
C3       0.98088    0.66694    0.52890   1.00
H1       1.02383    0.77888    0.44086   1.00
H1       1.03930    0.72112    0.44979   1.00
C5       0.96669    0.77065    0.56366   1.00
C5       0.96152    0.72935    0.56068   1.00
H1       1.02591    0.84886    0.44272   1.00
H1       1.03665    0.65114    0.44892   1.00
H1       0.97265    0.85053    0.55431   1.00
H1       0.96664    0.64947    0.55084   1.00
C6       0.95578    0.79234    0.60112   1.00
C6       0.93454    0.70766    0.58885   1.00
H2       0.96085    0.77358    0.62702   1.00
H2       0.97533    0.81737    0.60673   1.00
C6       0.91352    0.80724    0.59949   1.00
H2       0.90957    0.72642    0.59742   1.00
H2       0.91990    0.68263    0.57473   1.00
C6       0.95708    0.69276    0.62464   1.00
H2       0.89276    0.78274    0.59476   1.00
C6       0.90291    0.82832    0.63726   1.00
H2       0.90992    0.82760    0.57441   1.00
C6       0.92968    0.67168    0.65271   1.00
H2       0.98060    0.67240    0.61522   1.00
H2       0.97155    0.71726    0.64026   1.00
H2       0.90548    0.80822    0.66257   1.00
H2       0.92241    0.85380    0.64194   1.00
H2       0.87234    0.83898    0.63569   1.00
H2       0.90647    0.69178    0.66314   1.00
H2       0.91587    0.64620    0.63817   1.00
H2       0.94632    0.66102    0.67841   1.00
C4       0.72933    0.49961    0.50067   1.00
C4       0.77067    0.50039    0.49933   1.00
C3       0.70756    0.46733    0.48627   1.00
C3       0.79244    0.47177    0.47857   1.00
C4       0.70850    0.53183    0.51646   1.00
C4       0.79150    0.53017    0.51933   1.00
C2       0.64648    0.49946    0.49967   1.00
C2       0.85352    0.49945    0.49970   1.00
C3       0.66690    0.46760    0.48553   1.00
C3       0.83310    0.47127    0.47918   1.00
C3       0.66694    0.53101    0.51547   1.00
C3       0.83306    0.52890    0.51912   1.00
H1       0.72112    0.44086    0.47617   1.00
H1       0.77888    0.44979    0.46070   1.00
C5       0.72935    0.56366    0.53331   1.00
C5       0.77065    0.56068    0.53848   1.00
H1       0.65114    0.44272    0.47409   1.00
H1       0.84886    0.44892    0.46335   1.00
H1       0.64947    0.55431    0.52735   1.00
H1       0.85053    0.55084    0.53336   1.00
C6       0.70766    0.60112    0.54422   1.00
C6       0.79234    0.58885    0.56546   1.00
H2       0.72642    0.62702    0.53915   1.00
H2       0.68263    0.60673    0.52467   1.00
C6       0.69276    0.59949    0.58648   1.00
H2       0.77358    0.59742    0.59043   1.00
H2       0.81737    0.57473    0.58010   1.00
C6       0.80724    0.62464    0.54292   1.00
H2       0.71726    0.59476    0.60724   1.00
C6       0.67168    0.63726    0.59709   1.00
H2       0.67240    0.57441    0.59008   1.00
C6       0.82832    0.65271    0.57032   1.00
H2       0.82760    0.61522    0.51940   1.00
H2       0.78274    0.64026    0.52845   1.00
H2       0.69178    0.66257    0.59452   1.00
H2       0.64620    0.64194    0.57759   1.00
H2       0.66102    0.63569    0.62766   1.00
H2       0.80822    0.66314    0.59353   1.00
H2       0.85380    0.63817    0.58413   1.00
H2       0.83898    0.67841    0.55368   1.00
C4       1.27067    0.49961    0.49933   1.00
C4       1.22933    0.50039    0.50067   1.00
C3       1.29244    0.46733    0.51373   1.00
C3       1.20756    0.47177    0.52143   1.00
C4       1.29150    0.53183    0.48354   1.00
C4       1.20850    0.53017    0.48067   1.00
C2       1.35352    0.49946    0.50033   1.00
C2       1.14648    0.49945    0.50030   1.00
C3       1.33310    0.46760    0.51447   1.00
C3       1.16690    0.47127    0.52082   1.00
C3       1.33306    0.53101    0.48453   1.00
C3       1.16694    0.52890    0.48088   1.00
H1       1.27888    0.44086    0.52383   1.00
H1       1.22112    0.44979    0.53930   1.00
C5       1.27065    0.56366    0.46669   1.00
C5       1.22935    0.56068    0.46152   1.00
H1       1.34886    0.44272    0.52591   1.00
H1       1.15114    0.44892    0.53665   1.00
H1       1.35053    0.55431    0.47265   1.00
H1       1.14947    0.55084    0.46664   1.00
C6       1.29234    0.60112    0.45578   1.00
C6       1.20766    0.58885    0.43454   1.00
H2       1.27358    0.62702    0.46085   1.00
H2       1.31737    0.60673    0.47533   1.00
C6       1.30724    0.59949    0.41352   1.00
H2       1.22642    0.59742    0.40957   1.00
H2       1.18263    0.57473    0.41990   1.00
C6       1.19276    0.62464    0.45708   1.00
H2       1.28274    0.59476    0.39276   1.00
C6       1.32832    0.63726    0.40291   1.00
H2       1.32760    0.57441    0.40992   1.00
C6       1.17168    0.65271    0.42968   1.00
H2       1.17240    0.61522    0.48060   1.00
H2       1.21726    0.64026    0.47155   1.00
H2       1.30822    0.66257    0.40548   1.00
H2       1.35380    0.64194    0.42241   1.00
H2       1.33898    0.63569    0.37234   1.00
H2       1.19178    0.66314    0.40647   1.00
H2       1.14620    0.63817    0.41587   1.00
H2       1.16102    0.67841    0.44632   1.00
C4       1.00067    0.22933    0.49961   1.00
C4       0.99933    0.27067    0.50039   1.00
C3       0.98627    0.20756    0.46733   1.00
C3       0.97857    0.29244    0.47177   1.00
C4       1.01646    0.20850    0.53183   1.00
C4       1.01933    0.29150    0.53017   1.00
C2       0.99967    0.14648    0.49946   1.00
C2       0.99970    0.35352    0.49945   1.00
C3       0.98553    0.16690    0.46760   1.00
C3       0.97918    0.33310    0.47127   1.00
C3       1.01547    0.16694    0.53101   1.00
C3       1.01912    0.33306    0.52890   1.00
H1       0.97617    0.22112    0.44086   1.00
H1       0.96070    0.27888    0.44979   1.00
C5       1.03331    0.22935    0.56366   1.00
C5       1.03848    0.27065    0.56068   1.00
H1       0.97409    0.15114    0.44272   1.00
H1       0.96335    0.34886    0.44892   1.00
H1       1.02735    0.14947    0.55431   1.00
H1       1.03336    0.35053    0.55084   1.00
C6       1.04422    0.20766    0.60112   1.00
C6       1.06546    0.29234    0.58885   1.00
H2       1.03915    0.22642    0.62702   1.00
H2       1.02467    0.18263    0.60673   1.00
C6       1.08648    0.19276    0.59949   1.00
H2       1.09043    0.27358    0.59742   1.00
H2       1.08010    0.31737    0.57473   1.00
C6       1.04292    0.30724    0.62464   1.00
H2       1.10724    0.21726    0.59476   1.00
C6       1.09709    0.17168    0.63726   1.00
H2       1.09008    0.17240    0.57441   1.00
C6       1.07032    0.32832    0.65271   1.00
H2       1.01940    0.32760    0.61522   1.00
H2       1.02845    0.28274    0.64026   1.00
H2       1.09452    0.19178    0.66257   1.00
H2       1.07759    0.14620    0.64194   1.00
H2       1.12766    0.16102    0.63569   1.00
H2       1.09353    0.30822    0.66314   1.00
H2       1.08413    0.35380    0.63817   1.00
H2       1.05368    0.33898    0.67841   1.00
C4       0.99961    0.50067    0.22933   1.00
C4       1.00039    0.49933    0.27067   1.00
C3       0.96733    0.48627    0.20756   1.00
C3       0.97177    0.47857    0.29244   1.00
C4       1.03183    0.51646    0.20850   1.00
C4       1.03017    0.51933    0.29150   1.00
C2       0.99946    0.49967    0.14648   1.00
C2       0.99945    0.49970    0.35352   1.00
C3       0.96760    0.48553    0.16690   1.00
C3       0.97127    0.47918    0.33310   1.00
C3       1.03101    0.51547    0.16694   1.00
C3       1.02890    0.51912    0.33306   1.00
H1       0.94086    0.47617    0.22112   1.00
H1       0.94979    0.46070    0.27888   1.00
C5       1.06366    0.53331    0.22935   1.00
C5       1.06068    0.53848    0.27065   1.00
H1       0.94272    0.47409    0.15114   1.00
H1       0.94892    0.46335    0.34886   1.00
H1       1.05431    0.52735    0.14947   1.00
H1       1.05084    0.53336    0.35053   1.00
C6       1.10112    0.54422    0.20766   1.00
C6       1.08885    0.56546    0.29234   1.00
H2       1.12702    0.53915    0.22642   1.00
H2       1.10673    0.52467    0.18263   1.00
C6       1.09949    0.58648    0.19276   1.00
H2       1.09742    0.59043    0.27358   1.00
H2       1.07473    0.58010    0.31737   1.00
C6       1.12464    0.54292    0.30724   1.00
H2       1.09476    0.60724    0.21726   1.00
C6       1.13726    0.59709    0.17168   1.00
H2       1.07441    0.59008    0.17240   1.00
C6       1.15271    0.57032    0.32832   1.00
H2       1.11522    0.51940    0.32760   1.00
H2       1.14026    0.52845    0.28274   1.00
H2       1.16257    0.59452    0.19178   1.00
H2       1.14194    0.57759    0.14620   1.00
H2       1.13569    0.62766    0.16102   1.00
H2       1.16314    0.59353    0.30822   1.00
H2       1.13817    0.58413    0.35380   1.00
H2       1.17841    0.55368    0.33898   1.00
