data_IRMOF10_SG202_interpen_Ligand1lp_label_f.

_audit_creation_method             'generated by an auxiliary program of Tobunporous'

_symmetry_space_group_name_H-M     'P 1'
_symmetry_Int_Tables_number        1
_symmetry_cell_setting             triclinic

_cell_length_a                    34.2800
_cell_length_b                    34.2800
_cell_length_c                    34.2800
_cell_angle_alpha                 90.0000
_cell_angle_beta                  90.0000
_cell_angle_gamma                 90.0000

loop_
_atom_site_label
_atom_site_fract_x
_atom_site_fract_y
_atom_site_fract_z
_atom_site_occupancy
O1       0.75000    0.75000    0.75000   1.00
Zn1      0.71720    0.78280    0.78280   1.00
Zn1      0.78280    0.71720    0.78280   1.00
Zn1      0.78280    0.78280    0.71720   1.00
Zn1      0.71720    0.71720    0.71720   1.00
O2       0.72650    0.77350    0.83820   1.00
O2       0.72650    0.83820    0.77350   1.00
O2       0.66180    0.77350    0.77350   1.00
O2       0.77350    0.72650    0.83820   1.00
O2       0.83820    0.72650    0.77350   1.00
O2       0.77350    0.66180    0.77350   1.00
O2       0.77350    0.83820    0.72650   1.00
O2       0.83820    0.77350    0.72650   1.00
O2       0.77350    0.77350    0.66180   1.00
O2       0.66180    0.72650    0.72650   1.00
O2       0.72650    0.66180    0.72650   1.00
O2       0.72650    0.72650    0.66180   1.00
C1       0.75000    0.75000    0.85520   1.00
C1       0.75000    0.85520    0.75000   1.00
C1       0.64480    0.75000    0.75000   1.00
C1       0.85520    0.75000    0.75000   1.00
C1       0.75000    0.64480    0.75000   1.00
C1       0.75000    0.75000    0.64480   1.00
O1       0.25000    0.25000    0.75000   1.00
Zn1      0.21720    0.28280    0.78280   1.00
Zn1      0.28280    0.21720    0.78280   1.00
Zn1      0.28280    0.28280    0.71720   1.00
Zn1      0.21720    0.21720    0.71720   1.00
O2       0.22650    0.27350    0.83820   1.00
O2       0.22650    0.33820    0.77350   1.00
O2       0.16180    0.27350    0.77350   1.00
O2       0.27350    0.22650    0.83820   1.00
O2       0.33820    0.22650    0.77350   1.00
O2       0.27350    0.16180    0.77350   1.00
O2       0.27350    0.33820    0.72650   1.00
O2       0.33820    0.27350    0.72650   1.00
O2       0.27350    0.27350    0.66180   1.00
O2       0.16180    0.22650    0.72650   1.00
O2       0.22650    0.16180    0.72650   1.00
O2       0.22650    0.22650    0.66180   1.00
C1       0.25000    0.25000    0.85520   1.00
C1       0.25000    0.35520    0.75000   1.00
C1       0.14480    0.25000    0.75000   1.00
C1       0.35520    0.25000    0.75000   1.00
C1       0.25000    0.14480    0.75000   1.00
C1       0.25000    0.25000    0.64480   1.00
O1       0.25000    0.75000    0.25000   1.00
Zn1      0.21720    0.78280    0.28280   1.00
Zn1      0.28280    0.71720    0.28280   1.00
Zn1      0.28280    0.78280    0.21720   1.00
Zn1      0.21720    0.71720    0.21720   1.00
O2       0.22650    0.77350    0.33820   1.00
O2       0.22650    0.83820    0.27350   1.00
O2       0.16180    0.77350    0.27350   1.00
O2       0.27350    0.72650    0.33820   1.00
O2       0.33820    0.72650    0.27350   1.00
O2       0.27350    0.66180    0.27350   1.00
O2       0.27350    0.83820    0.22650   1.00
O2       0.33820    0.77350    0.22650   1.00
O2       0.27350    0.77350    0.16180   1.00
O2       0.16180    0.72650    0.22650   1.00
O2       0.22650    0.66180    0.22650   1.00
O2       0.22650    0.72650    0.16180   1.00
C1       0.25000    0.75000    0.35520   1.00
C1       0.25000    0.85520    0.25000   1.00
C1       0.14480    0.75000    0.25000   1.00
C1       0.35520    0.75000    0.25000   1.00
C1       0.25000    0.64480    0.25000   1.00
C1       0.25000    0.75000    0.14480   1.00
O1       0.75000    0.25000    0.25000   1.00
Zn1      0.71720    0.28280    0.28280   1.00
Zn1      0.78280    0.21720    0.28280   1.00
Zn1      0.78280    0.28280    0.21720   1.00
Zn1      0.71720    0.21720    0.21720   1.00
O2       0.72650    0.27350    0.33820   1.00
O2       0.72650    0.33820    0.27350   1.00
O2       0.66180    0.27350    0.27350   1.00
O2       0.77350    0.22650    0.33820   1.00
O2       0.83820    0.22650    0.27350   1.00
O2       0.77350    0.16180    0.27350   1.00
O2       0.77350    0.33820    0.22650   1.00
O2       0.83820    0.27350    0.22650   1.00
O2       0.77350    0.27350    0.16180   1.00
O2       0.66180    0.22650    0.22650   1.00
O2       0.72650    0.16180    0.22650   1.00
O2       0.72650    0.22650    0.16180   1.00
C1       0.75000    0.25000    0.35520   1.00
C1       0.75000    0.35520    0.25000   1.00
C1       0.64480    0.25000    0.25000   1.00
C1       0.85520    0.25000    0.25000   1.00
C1       0.75000    0.14480    0.25000   1.00
C1       0.75000    0.25000    0.14480   1.00
O1       0.25000    0.25000    0.25000   1.00
Zn1      0.28280    0.21720    0.21720   1.00
Zn1      0.21720    0.28280    0.21720   1.00
Zn1      0.21720    0.21720    0.28280   1.00
Zn1      0.28280    0.28280    0.28280   1.00
O2       0.27350    0.22650    0.16180   1.00
O2       0.27350    0.16180    0.22650   1.00
O2       0.33820    0.22650    0.22650   1.00
O2       0.22650    0.27350    0.16180   1.00
O2       0.16180    0.27350    0.22650   1.00
O2       0.22650    0.33820    0.22650   1.00
O2       0.22650    0.16180    0.27350   1.00
O2       0.16180    0.22650    0.27350   1.00
O2       0.22650    0.22650    0.33820   1.00
O2       0.33820    0.27350    0.27350   1.00
O2       0.27350    0.33820    0.27350   1.00
O2       0.27350    0.27350    0.33820   1.00
C1       0.25000    0.25000    0.14480   1.00
C1       0.25000    0.14480    0.25000   1.00
C1       0.35520    0.25000    0.25000   1.00
C1       0.14480    0.25000    0.25000   1.00
C1       0.25000    0.35520    0.25000   1.00
C1       0.25000    0.25000    0.35520   1.00
O1       0.75000    0.75000    0.25000   1.00
Zn1      0.78280    0.71720    0.21720   1.00
Zn1      0.71720    0.78280    0.21720   1.00
Zn1      0.71720    0.71720    0.28280   1.00
Zn1      0.78280    0.78280    0.28280   1.00
O2       0.77350    0.72650    0.16180   1.00
O2       0.77350    0.66180    0.22650   1.00
O2       0.83820    0.72650    0.22650   1.00
O2       0.72650    0.77350    0.16180   1.00
O2       0.66180    0.77350    0.22650   1.00
O2       0.72650    0.83820    0.22650   1.00
O2       0.72650    0.66180    0.27350   1.00
O2       0.66180    0.72650    0.27350   1.00
O2       0.72650    0.72650    0.33820   1.00
O2       0.83820    0.77350    0.27350   1.00
O2       0.77350    0.83820    0.27350   1.00
O2       0.77350    0.77350    0.33820   1.00
C1       0.75000    0.75000    0.14480   1.00
C1       0.75000    0.64480    0.25000   1.00
C1       0.85520    0.75000    0.25000   1.00
C1       0.64480    0.75000    0.25000   1.00
C1       0.75000    0.85520    0.25000   1.00
C1       0.75000    0.75000    0.35520   1.00
O1       0.75000    0.25000    0.75000   1.00
Zn1      0.78280    0.21720    0.71720   1.00
Zn1      0.71720    0.28280    0.71720   1.00
Zn1      0.71720    0.21720    0.78280   1.00
Zn1      0.78280    0.28280    0.78280   1.00
O2       0.77350    0.22650    0.66180   1.00
O2       0.77350    0.16180    0.72650   1.00
O2       0.83820    0.22650    0.72650   1.00
O2       0.72650    0.27350    0.66180   1.00
O2       0.66180    0.27350    0.72650   1.00
O2       0.72650    0.33820    0.72650   1.00
O2       0.72650    0.16180    0.77350   1.00
O2       0.66180    0.22650    0.77350   1.00
O2       0.72650    0.22650    0.83820   1.00
O2       0.83820    0.27350    0.77350   1.00
O2       0.77350    0.33820    0.77350   1.00
O2       0.77350    0.27350    0.83820   1.00
C1       0.75000    0.25000    0.64480   1.00
C1       0.75000    0.14480    0.75000   1.00
C1       0.85520    0.25000    0.75000   1.00
C1       0.64480    0.25000    0.75000   1.00
C1       0.75000    0.35520    0.75000   1.00
C1       0.75000    0.25000    0.85520   1.00
O1       0.25000    0.75000    0.75000   1.00
Zn1      0.28280    0.71720    0.71720   1.00
Zn1      0.21720    0.78280    0.71720   1.00
Zn1      0.21720    0.71720    0.78280   1.00
Zn1      0.28280    0.78280    0.78280   1.00
O2       0.27350    0.72650    0.66180   1.00
O2       0.27350    0.66180    0.72650   1.00
O2       0.33820    0.72650    0.72650   1.00
O2       0.22650    0.77350    0.66180   1.00
O2       0.16180    0.77350    0.72650   1.00
O2       0.22650    0.83820    0.72650   1.00
O2       0.22650    0.66180    0.77350   1.00
O2       0.16180    0.72650    0.77350   1.00
O2       0.22650    0.72650    0.83820   1.00
O2       0.33820    0.77350    0.77350   1.00
O2       0.27350    0.83820    0.77350   1.00
O2       0.27350    0.77350    0.83820   1.00
C1       0.25000    0.75000    0.64480   1.00
C1       0.25000    0.64480    0.75000   1.00
C1       0.35520    0.75000    0.75000   1.00
C1       0.14480    0.75000    0.75000   1.00
C1       0.25000    0.85520    0.75000   1.00
C1       0.25000    0.75000    0.85520   1.00
O1       1.00000    1.00000    1.00000   1.00
Zn1      0.96720    1.03280    1.03280   1.00
Zn1      1.03280    0.96720    1.03280   1.00
Zn1      1.03280    1.03280    0.96720   1.00
Zn1      0.96720    0.96720    0.96720   1.00
O2       0.97650    1.02350    1.08820   1.00
O2       0.97650    1.08820    1.02350   1.00
O2       0.91180    1.02350    1.02350   1.00
O2       1.02350    0.97650    1.08820   1.00
O2       1.08820    0.97650    1.02350   1.00
O2       1.02350    0.91180    1.02350   1.00
O2       1.02350    1.08820    0.97650   1.00
O2       1.08820    1.02350    0.97650   1.00
O2       1.02350    1.02350    0.91180   1.00
O2       0.91180    0.97650    0.97650   1.00
O2       0.97650    0.91180    0.97650   1.00
O2       0.97650    0.97650    0.91180   1.00
C1       1.00000    1.00000    1.10520   1.00
C1       1.00000    1.10520    1.00000   1.00
C1       0.89480    1.00000    1.00000   1.00
C1       1.10520    1.00000    1.00000   1.00
C1       1.00000    0.89480    1.00000   1.00
C1       1.00000    1.00000    0.89480   1.00
O1       0.50000    0.50000    1.00000   1.00
Zn1      0.46720    0.53280    1.03280   1.00
Zn1      0.53280    0.46720    1.03280   1.00
Zn1      0.53280    0.53280    0.96720   1.00
Zn1      0.46720    0.46720    0.96720   1.00
O2       0.47650    0.52350    1.08820   1.00
O2       0.47650    0.58820    1.02350   1.00
O2       0.41180    0.52350    1.02350   1.00
O2       0.52350    0.47650    1.08820   1.00
O2       0.58820    0.47650    1.02350   1.00
O2       0.52350    0.41180    1.02350   1.00
O2       0.52350    0.58820    0.97650   1.00
O2       0.58820    0.52350    0.97650   1.00
O2       0.52350    0.52350    0.91180   1.00
O2       0.41180    0.47650    0.97650   1.00
O2       0.47650    0.41180    0.97650   1.00
O2       0.47650    0.47650    0.91180   1.00
C1       0.50000    0.50000    1.10520   1.00
C1       0.50000    0.60520    1.00000   1.00
C1       0.39480    0.50000    1.00000   1.00
C1       0.60520    0.50000    1.00000   1.00
C1       0.50000    0.39480    1.00000   1.00
C1       0.50000    0.50000    0.89480   1.00
O1       0.50000    1.00000    0.50000   1.00
Zn1      0.46720    1.03280    0.53280   1.00
Zn1      0.53280    0.96720    0.53280   1.00
Zn1      0.53280    1.03280    0.46720   1.00
Zn1      0.46720    0.96720    0.46720   1.00
O2       0.47650    1.02350    0.58820   1.00
O2       0.47650    1.08820    0.52350   1.00
O2       0.41180    1.02350    0.52350   1.00
O2       0.52350    0.97650    0.58820   1.00
O2       0.58820    0.97650    0.52350   1.00
O2       0.52350    0.91180    0.52350   1.00
O2       0.52350    1.08820    0.47650   1.00
O2       0.58820    1.02350    0.47650   1.00
O2       0.52350    1.02350    0.41180   1.00
O2       0.41180    0.97650    0.47650   1.00
O2       0.47650    0.91180    0.47650   1.00
O2       0.47650    0.97650    0.41180   1.00
C1       0.50000    1.00000    0.60520   1.00
C1       0.50000    1.10520    0.50000   1.00
C1       0.39480    1.00000    0.50000   1.00
C1       0.60520    1.00000    0.50000   1.00
C1       0.50000    0.89480    0.50000   1.00
C1       0.50000    1.00000    0.39480   1.00
O1       1.00000    0.50000    0.50000   1.00
Zn1      0.96720    0.53280    0.53280   1.00
Zn1      1.03280    0.46720    0.53280   1.00
Zn1      1.03280    0.53280    0.46720   1.00
Zn1      0.96720    0.46720    0.46720   1.00
O2       0.97650    0.52350    0.58820   1.00
O2       0.97650    0.58820    0.52350   1.00
O2       0.91180    0.52350    0.52350   1.00
O2       1.02350    0.47650    0.58820   1.00
O2       1.08820    0.47650    0.52350   1.00
O2       1.02350    0.41180    0.52350   1.00
O2       1.02350    0.58820    0.47650   1.00
O2       1.08820    0.52350    0.47650   1.00
O2       1.02350    0.52350    0.41180   1.00
O2       0.91180    0.47650    0.47650   1.00
O2       0.97650    0.41180    0.47650   1.00
O2       0.97650    0.47650    0.41180   1.00
C1       1.00000    0.50000    0.60520   1.00
C1       1.00000    0.60520    0.50000   1.00
C1       0.89480    0.50000    0.50000   1.00
C1       1.10520    0.50000    0.50000   1.00
C1       1.00000    0.39480    0.50000   1.00
C1       1.00000    0.50000    0.39480   1.00
O1       0.50000    0.50000    0.50000   1.00
Zn1      0.53280    0.46720    0.46720   1.00
Zn1      0.46720    0.53280    0.46720   1.00
Zn1      0.46720    0.46720    0.53280   1.00
Zn1      0.53280    0.53280    0.53280   1.00
O2       0.52350    0.47650    0.41180   1.00
O2       0.52350    0.41180    0.47650   1.00
O2       0.58820    0.47650    0.47650   1.00
O2       0.47650    0.52350    0.41180   1.00
O2       0.41180    0.52350    0.47650   1.00
O2       0.47650    0.58820    0.47650   1.00
O2       0.47650    0.41180    0.52350   1.00
O2       0.41180    0.47650    0.52350   1.00
O2       0.47650    0.47650    0.58820   1.00
O2       0.58820    0.52350    0.52350   1.00
O2       0.52350    0.58820    0.52350   1.00
O2       0.52350    0.52350    0.58820   1.00
C1       0.50000    0.50000    0.39480   1.00
C1       0.50000    0.39480    0.50000   1.00
C1       0.60520    0.50000    0.50000   1.00
C1       0.39480    0.50000    0.50000   1.00
C1       0.50000    0.60520    0.50000   1.00
C1       0.50000    0.50000    0.60520   1.00
O1       1.00000    1.00000    0.50000   1.00
Zn1      1.03280    0.96720    0.46720   1.00
Zn1      0.96720    1.03280    0.46720   1.00
Zn1      0.96720    0.96720    0.53280   1.00
Zn1      1.03280    1.03280    0.53280   1.00
O2       1.02350    0.97650    0.41180   1.00
O2       1.02350    0.91180    0.47650   1.00
O2       1.08820    0.97650    0.47650   1.00
O2       0.97650    1.02350    0.41180   1.00
O2       0.91180    1.02350    0.47650   1.00
O2       0.97650    1.08820    0.47650   1.00
O2       0.97650    0.91180    0.52350   1.00
O2       0.91180    0.97650    0.52350   1.00
O2       0.97650    0.97650    0.58820   1.00
O2       1.08820    1.02350    0.52350   1.00
O2       1.02350    1.08820    0.52350   1.00
O2       1.02350    1.02350    0.58820   1.00
C1       1.00000    1.00000    0.39480   1.00
C1       1.00000    0.89480    0.50000   1.00
C1       1.10520    1.00000    0.50000   1.00
C1       0.89480    1.00000    0.50000   1.00
C1       1.00000    1.10520    0.50000   1.00
C1       1.00000    1.00000    0.60520   1.00
O1       1.00000    0.50000    1.00000   1.00
Zn1      1.03280    0.46720    0.96720   1.00
Zn1      0.96720    0.53280    0.96720   1.00
Zn1      0.96720    0.46720    1.03280   1.00
Zn1      1.03280    0.53280    1.03280   1.00
O2       1.02350    0.47650    0.91180   1.00
O2       1.02350    0.41180    0.97650   1.00
O2       1.08820    0.47650    0.97650   1.00
O2       0.97650    0.52350    0.91180   1.00
O2       0.91180    0.52350    0.97650   1.00
O2       0.97650    0.58820    0.97650   1.00
O2       0.97650    0.41180    1.02350   1.00
O2       0.91180    0.47650    1.02350   1.00
O2       0.97650    0.47650    1.08820   1.00
O2       1.08820    0.52350    1.02350   1.00
O2       1.02350    0.58820    1.02350   1.00
O2       1.02350    0.52350    1.08820   1.00
C1       1.00000    0.50000    0.89480   1.00
C1       1.00000    0.39480    1.00000   1.00
C1       1.10520    0.50000    1.00000   1.00
C1       0.89480    0.50000    1.00000   1.00
C1       1.00000    0.60520    1.00000   1.00
C1       1.00000    0.50000    1.10520   1.00
O1       0.50000    1.00000    1.00000   1.00
Zn1      0.53280    0.96720    0.96720   1.00
Zn1      0.46720    1.03280    0.96720   1.00
Zn1      0.46720    0.96720    1.03280   1.00
Zn1      0.53280    1.03280    1.03280   1.00
O2       0.52350    0.97650    0.91180   1.00
O2       0.52350    0.91180    0.97650   1.00
O2       0.58820    0.97650    0.97650   1.00
O2       0.47650    1.02350    0.91180   1.00
O2       0.41180    1.02350    0.97650   1.00
O2       0.47650    1.08820    0.97650   1.00
O2       0.47650    0.91180    1.02350   1.00
O2       0.41180    0.97650    1.02350   1.00
O2       0.47650    0.97650    1.08820   1.00
O2       0.58820    1.02350    1.02350   1.00
O2       0.52350    1.08820    1.02350   1.00
O2       0.52350    1.02350    1.08820   1.00
C1       0.50000    1.00000    0.89480   1.00
C1       0.50000    0.89480    1.00000   1.00
C1       0.60520    1.00000    1.00000   1.00
C1       0.39480    1.00000    1.00000   1.00
C1       0.50000    1.10520    1.00000   1.00
C1       0.50000    1.00000    1.10520   1.00
C5       0.82724    0.85083    1.13227   1.00
H2       0.79995    0.85931    1.14755   1.00
H2       0.83321    0.87454    1.11099   1.00
C5       0.86091    0.84767    1.16219   1.00
H2       0.87318    0.87699    1.16890   1.00
H2       0.88454    0.82875    1.15040   1.00
O_3      0.81269    0.71721    0.98000   1.00
C4       0.74956    0.75008    1.02100   1.00
C3c      0.76518    0.78132    1.04243   1.00
H1       0.77745    0.80610    1.02725   1.00
C3d      0.73321    0.71832    1.04135   1.00
C3       0.76577    0.78092    1.08354   1.00
O2       0.77712    0.81446    1.10248   1.00
C3       0.73443    0.71750    1.08227   1.00
H1       0.72279    0.69190    1.09657   1.00
C2       0.75050    0.74865    1.10439   1.00
C5       0.81114    0.67605    0.97879   1.00
H2       0.81248    0.66459    0.94838   1.00
H2       0.78385    0.66494    0.99266   1.00
C5       0.84614    0.66063    1.00122   1.00
H2       0.84539    0.67296    1.03129   1.00
H2       0.87321    0.67160    0.98691   1.00
C5       0.84595    0.61589    1.00254   1.00
H2       0.84642    0.60338    0.97260   1.00
H2       0.81960    0.60494    1.01803   1.00
H2       0.87220    0.60514    1.01830   1.00
C5       0.68073    0.69080    1.01105   1.00
C5       0.81753    0.81292    1.11070   1.00
H2       0.67721    0.71598    0.99088   1.00
H2       0.66182    0.69560    1.03712   1.00
H2       0.83454    0.81102    1.08300   1.00
H2       0.82560    0.78708    1.12895   1.00
H2       0.85044    0.83540    1.19055   1.00
H2       0.63292    0.67981    0.94250   1.00
H2       0.60613    0.67229    0.98766   1.00
C2       0.75089    0.74759    0.89605   1.00
C3       0.71993    0.76607    0.91597   1.00
O2       0.68563    0.77470    0.89674   1.00
C3       0.78196    0.73188    0.91826   1.00
H1       0.80658    0.71845    0.90385   1.00
C3a      0.72015    0.76755    0.95713   1.00
H1       0.69518    0.77981    0.97202   1.00
C3b      0.78149    0.73229    0.95922   1.00
C4       0.75040    0.75014    0.97900   1.00
O_3      0.72016    0.68556    1.02167   1.00
C5       0.68433    0.81473    0.88720   1.00
H2       0.68613    0.83331    0.91391   1.00
C5       0.64534    0.82202    0.86666   1.00
H2       0.70875    0.82275    0.86726   1.00
H2       0.62208    0.82430    0.88923   1.00
H2       0.63855    0.79560    0.84899   1.00
C5       0.64579    0.85877    0.84069   1.00
H2       0.65562    0.88430    0.85811   1.00
H2       0.61615    0.86493    0.82891   1.00
H2       0.66547    0.85492    0.81494   1.00
C5       0.66748    0.65388    0.99020   1.00
H2       0.66457    0.63012    1.01218   1.00
H2       0.69092    0.64488    0.96955   1.00
C5       0.62888    0.65999    0.96803   1.00
H2       0.61806    0.63162    0.95666   1.00
C5       0.85083    1.13227    0.82724   1.00
H2       0.85931    1.14755    0.79995   1.00
H2       0.87454    1.11099    0.83321   1.00
C5       0.84767    1.16219    0.86091   1.00
H2       0.87699    1.16890    0.87318   1.00
H2       0.82875    1.15040    0.88454   1.00
O_3      0.71721    0.98000    0.81269   1.00
C4       0.75008    1.02100    0.74956   1.00
C3c      0.78132    1.04243    0.76518   1.00
H1       0.80610    1.02725    0.77745   1.00
C3d      0.71832    1.04135    0.73321   1.00
C3       0.78092    1.08354    0.76577   1.00
O2       0.81446    1.10248    0.77712   1.00
C3       0.71750    1.08227    0.73443   1.00
H1       0.69190    1.09657    0.72279   1.00
C2       0.74865    1.10439    0.75050   1.00
C5       0.67605    0.97879    0.81114   1.00
H2       0.66459    0.94838    0.81248   1.00
H2       0.66494    0.99266    0.78385   1.00
C5       0.66063    1.00122    0.84614   1.00
H2       0.67296    1.03129    0.84539   1.00
H2       0.67160    0.98691    0.87321   1.00
C5       0.61589    1.00254    0.84595   1.00
H2       0.60338    0.97260    0.84642   1.00
H2       0.60494    1.01803    0.81960   1.00
H2       0.60514    1.01830    0.87220   1.00
C5       0.69080    1.01105    0.68073   1.00
C5       0.81292    1.11070    0.81753   1.00
H2       0.71598    0.99088    0.67721   1.00
H2       0.69560    1.03712    0.66182   1.00
H2       0.81102    1.08300    0.83454   1.00
H2       0.78708    1.12895    0.82560   1.00
H2       0.83540    1.19055    0.85044   1.00
H2       0.67981    0.94250    0.63292   1.00
H2       0.67229    0.98766    0.60613   1.00
C2       0.74759    0.89605    0.75089   1.00
C3       0.76607    0.91597    0.71993   1.00
O2       0.77470    0.89674    0.68563   1.00
C3       0.73188    0.91826    0.78196   1.00
H1       0.71845    0.90385    0.80658   1.00
C3a      0.76755    0.95713    0.72015   1.00
H1       0.77981    0.97202    0.69518   1.00
C3b      0.73229    0.95922    0.78149   1.00
C4       0.75014    0.97900    0.75040   1.00
O_3      0.68556    1.02167    0.72016   1.00
C5       0.81473    0.88720    0.68433   1.00
H2       0.83331    0.91391    0.68613   1.00
C5       0.82202    0.86666    0.64534   1.00
H2       0.82275    0.86726    0.70875   1.00
H2       0.82430    0.88923    0.62208   1.00
H2       0.79560    0.84899    0.63855   1.00
C5       0.85877    0.84069    0.64579   1.00
H2       0.88430    0.85811    0.65562   1.00
H2       0.86493    0.82891    0.61615   1.00
H2       0.85492    0.81494    0.66547   1.00
C5       0.65388    0.99020    0.66748   1.00
H2       0.63012    1.01218    0.66457   1.00
H2       0.64488    0.96955    0.69092   1.00
C5       0.65999    0.96803    0.62888   1.00
H2       0.63162    0.95666    0.61806   1.00
C5       0.36773    0.82724    0.64917   1.00
H2       0.35245    0.79995    0.64069   1.00
H2       0.38901    0.83321    0.62546   1.00
C5       0.33781    0.86091    0.65233   1.00
H2       0.33110    0.87318    0.62301   1.00
H2       0.34960    0.88454    0.67125   1.00
O_3      0.52000    0.81269    0.78279   1.00
C4       0.47900    0.74956    0.74992   1.00
C3c      0.45757    0.76518    0.71868   1.00
H1       0.47275    0.77745    0.69390   1.00
C3d      0.45865    0.73321    0.78168   1.00
C3       0.41646    0.76577    0.71908   1.00
O2       0.39752    0.77712    0.68554   1.00
C3       0.41773    0.73443    0.78250   1.00
H1       0.40343    0.72279    0.80810   1.00
C2       0.39561    0.75050    0.75135   1.00
C5       0.52121    0.81114    0.82395   1.00
H2       0.55162    0.81248    0.83541   1.00
H2       0.50734    0.78385    0.83506   1.00
C5       0.49878    0.84614    0.83937   1.00
H2       0.46871    0.84539    0.82704   1.00
H2       0.51309    0.87321    0.82840   1.00
C5       0.49746    0.84595    0.88411   1.00
H2       0.52740    0.84642    0.89662   1.00
H2       0.48197    0.81960    0.89506   1.00
H2       0.48170    0.87220    0.89486   1.00
C5       0.48895    0.68073    0.80920   1.00
C5       0.38930    0.81753    0.68708   1.00
H2       0.50912    0.67721    0.78402   1.00
H2       0.46288    0.66182    0.80440   1.00
H2       0.41700    0.83454    0.68898   1.00
H2       0.37105    0.82560    0.71292   1.00
H2       0.30945    0.85044    0.66460   1.00
H2       0.55750    0.63292    0.82019   1.00
H2       0.51234    0.60613    0.82771   1.00
C2       0.60395    0.75089    0.75241   1.00
C3       0.58403    0.71993    0.73393   1.00
O2       0.60326    0.68563    0.72530   1.00
C3       0.58174    0.78196    0.76812   1.00
H1       0.59615    0.80658    0.78155   1.00
C3a      0.54287    0.72015    0.73245   1.00
H1       0.52798    0.69518    0.72019   1.00
C3b      0.54078    0.78149    0.76771   1.00
C4       0.52100    0.75040    0.74986   1.00
O_3      0.47833    0.72016    0.81444   1.00
C5       0.61280    0.68433    0.68527   1.00
H2       0.58609    0.68613    0.66669   1.00
C5       0.63334    0.64534    0.67798   1.00
H2       0.63274    0.70875    0.67725   1.00
H2       0.61077    0.62208    0.67570   1.00
H2       0.65101    0.63855    0.70440   1.00
C5       0.65931    0.64579    0.64123   1.00
H2       0.64189    0.65562    0.61570   1.00
H2       0.67109    0.61615    0.63507   1.00
H2       0.68506    0.66547    0.64508   1.00
C5       0.50980    0.66748    0.84612   1.00
H2       0.48782    0.66457    0.86988   1.00
H2       0.53045    0.69092    0.85512   1.00
C5       0.53197    0.62888    0.84001   1.00
H2       0.54334    0.61806    0.86838   1.00
C5       1.13227    0.82724    0.85083   1.00
H2       1.14755    0.79995    0.85931   1.00
H2       1.11099    0.83321    0.87454   1.00
C5       1.16219    0.86091    0.84767   1.00
H2       1.16890    0.87318    0.87699   1.00
H2       1.15040    0.88454    0.82875   1.00
O_3      0.98000    0.81269    0.71721   1.00
C4       1.02100    0.74956    0.75008   1.00
C3c      1.04243    0.76518    0.78132   1.00
H1       1.02725    0.77745    0.80610   1.00
C3d      1.04135    0.73321    0.71832   1.00
C3       1.08354    0.76577    0.78092   1.00
O2       1.10248    0.77712    0.81446   1.00
C3       1.08227    0.73443    0.71750   1.00
H1       1.09657    0.72279    0.69190   1.00
C2       1.10439    0.75050    0.74865   1.00
C5       0.97879    0.81114    0.67605   1.00
H2       0.94838    0.81248    0.66459   1.00
H2       0.99266    0.78385    0.66494   1.00
C5       1.00122    0.84614    0.66063   1.00
H2       1.03129    0.84539    0.67296   1.00
H2       0.98691    0.87321    0.67160   1.00
C5       1.00254    0.84595    0.61589   1.00
H2       0.97260    0.84642    0.60338   1.00
H2       1.01803    0.81960    0.60494   1.00
H2       1.01830    0.87220    0.60514   1.00
C5       1.01105    0.68073    0.69080   1.00
C5       1.11070    0.81753    0.81292   1.00
H2       0.99088    0.67721    0.71598   1.00
H2       1.03712    0.66182    0.69560   1.00
H2       1.08300    0.83454    0.81102   1.00
H2       1.12895    0.82560    0.78708   1.00
H2       1.19055    0.85044    0.83540   1.00
H2       0.94250    0.63292    0.67981   1.00
H2       0.98766    0.60613    0.67229   1.00
C2       0.89605    0.75089    0.74759   1.00
C3       0.91597    0.71993    0.76607   1.00
O2       0.89674    0.68563    0.77470   1.00
C3       0.91826    0.78196    0.73188   1.00
H1       0.90385    0.80658    0.71845   1.00
C3a      0.95713    0.72015    0.76755   1.00
H1       0.97202    0.69518    0.77981   1.00
C3b      0.95922    0.78149    0.73229   1.00
C4       0.97900    0.75040    0.75014   1.00
O_3      1.02167    0.72016    0.68556   1.00
C5       0.88720    0.68433    0.81473   1.00
H2       0.91391    0.68613    0.83331   1.00
C5       0.86666    0.64534    0.82202   1.00
H2       0.86726    0.70875    0.82275   1.00
H2       0.88923    0.62208    0.82430   1.00
H2       0.84899    0.63855    0.79560   1.00
C5       0.84069    0.64579    0.85877   1.00
H2       0.85811    0.65562    0.88430   1.00
H2       0.82891    0.61615    0.86493   1.00
H2       0.81494    0.66547    0.85492   1.00
C5       0.99020    0.66748    0.65388   1.00
H2       1.01218    0.66457    0.63012   1.00
H2       0.96955    0.69092    0.64488   1.00
C5       0.96803    0.62888    0.65999   1.00
H2       0.95666    0.61806    0.63162   1.00
C5       0.64917    0.36773    0.82724   1.00
H2       0.64069    0.35245    0.79995   1.00
H2       0.62546    0.38901    0.83321   1.00
C5       0.65233    0.33781    0.86091   1.00
H2       0.62301    0.33110    0.87318   1.00
H2       0.67125    0.34960    0.88454   1.00
O_3      0.78279    0.52000    0.81269   1.00
C4       0.74992    0.47900    0.74956   1.00
C3c      0.71868    0.45757    0.76518   1.00
H1       0.69390    0.47275    0.77745   1.00
C3d      0.78168    0.45865    0.73321   1.00
C3       0.71908    0.41646    0.76577   1.00
O2       0.68554    0.39752    0.77712   1.00
C3       0.78250    0.41773    0.73443   1.00
H1       0.80810    0.40343    0.72279   1.00
C2       0.75135    0.39561    0.75050   1.00
C5       0.82395    0.52121    0.81114   1.00
H2       0.83541    0.55162    0.81248   1.00
H2       0.83506    0.50734    0.78385   1.00
C5       0.83937    0.49878    0.84614   1.00
H2       0.82704    0.46871    0.84539   1.00
H2       0.82840    0.51309    0.87321   1.00
C5       0.88411    0.49746    0.84595   1.00
H2       0.89662    0.52740    0.84642   1.00
H2       0.89506    0.48197    0.81960   1.00
H2       0.89486    0.48170    0.87220   1.00
C5       0.80920    0.48895    0.68073   1.00
C5       0.68708    0.38930    0.81753   1.00
H2       0.78402    0.50912    0.67721   1.00
H2       0.80440    0.46288    0.66182   1.00
H2       0.68898    0.41700    0.83454   1.00
H2       0.71292    0.37105    0.82560   1.00
H2       0.66460    0.30945    0.85044   1.00
H2       0.82019    0.55750    0.63292   1.00
H2       0.82771    0.51234    0.60613   1.00
C2       0.75241    0.60395    0.75089   1.00
C3       0.73393    0.58403    0.71993   1.00
O2       0.72530    0.60326    0.68563   1.00
C3       0.76812    0.58174    0.78196   1.00
H1       0.78155    0.59615    0.80658   1.00
C3a      0.73245    0.54287    0.72015   1.00
H1       0.72019    0.52798    0.69518   1.00
C3b      0.76771    0.54078    0.78149   1.00
C4       0.74986    0.52100    0.75040   1.00
O_3      0.81444    0.47833    0.72016   1.00
C5       0.68527    0.61280    0.68433   1.00
H2       0.66669    0.58609    0.68613   1.00
C5       0.67798    0.63334    0.64534   1.00
H2       0.67725    0.63274    0.70875   1.00
H2       0.67570    0.61077    0.62208   1.00
H2       0.70440    0.65101    0.63855   1.00
C5       0.64123    0.65931    0.64579   1.00
H2       0.61570    0.64189    0.65562   1.00
H2       0.63507    0.67109    0.61615   1.00
H2       0.64508    0.68506    0.66547   1.00
C5       0.84612    0.50980    0.66748   1.00
H2       0.86988    0.48782    0.66457   1.00
H2       0.85512    0.53045    0.69092   1.00
C5       0.84001    0.53197    0.62888   1.00
H2       0.86838    0.54334    0.61806   1.00
C5       0.82724    0.64917    0.36773   1.00
H2       0.79995    0.64069    0.35245   1.00
H2       0.83321    0.62546    0.38901   1.00
C5       0.86091    0.65233    0.33781   1.00
H2       0.87318    0.62301    0.33110   1.00
H2       0.88454    0.67125    0.34960   1.00
O_3      0.81269    0.78279    0.52000   1.00
C4       0.74956    0.74992    0.47900   1.00
C3c      0.76518    0.71868    0.45757   1.00
H1       0.77745    0.69390    0.47275   1.00
C3d      0.73321    0.78168    0.45865   1.00
C3       0.76577    0.71908    0.41646   1.00
O2       0.77712    0.68554    0.39752   1.00
C3       0.73443    0.78250    0.41773   1.00
H1       0.72279    0.80810    0.40343   1.00
C2       0.75050    0.75135    0.39561   1.00
C5       0.81114    0.82395    0.52121   1.00
H2       0.81248    0.83541    0.55162   1.00
H2       0.78385    0.83506    0.50734   1.00
C5       0.84614    0.83937    0.49878   1.00
H2       0.84539    0.82704    0.46871   1.00
H2       0.87321    0.82840    0.51309   1.00
C5       0.84595    0.88411    0.49746   1.00
H2       0.84642    0.89662    0.52740   1.00
H2       0.81960    0.89506    0.48197   1.00
H2       0.87220    0.89486    0.48170   1.00
C5       0.68073    0.80920    0.48895   1.00
C5       0.81753    0.68708    0.38930   1.00
H2       0.67721    0.78402    0.50912   1.00
H2       0.66182    0.80440    0.46288   1.00
H2       0.83454    0.68898    0.41700   1.00
H2       0.82560    0.71292    0.37105   1.00
H2       0.85044    0.66460    0.30945   1.00
H2       0.63292    0.82019    0.55750   1.00
H2       0.60613    0.82771    0.51234   1.00
C2       0.75089    0.75241    0.60395   1.00
C3       0.71993    0.73393    0.58403   1.00
O2       0.68563    0.72530    0.60326   1.00
C3       0.78196    0.76812    0.58174   1.00
H1       0.80658    0.78155    0.59615   1.00
C3a      0.72015    0.73245    0.54287   1.00
H1       0.69518    0.72019    0.52798   1.00
C3b      0.78149    0.76771    0.54078   1.00
C4       0.75040    0.74986    0.52100   1.00
O_3      0.72016    0.81444    0.47833   1.00
C5       0.68433    0.68527    0.61280   1.00
H2       0.68613    0.66669    0.58609   1.00
C5       0.64534    0.67798    0.63334   1.00
H2       0.70875    0.67725    0.63274   1.00
H2       0.62208    0.67570    0.61077   1.00
H2       0.63855    0.70440    0.65101   1.00
C5       0.64579    0.64123    0.65931   1.00
H2       0.65562    0.61570    0.64189   1.00
H2       0.61615    0.63507    0.67109   1.00
H2       0.66547    0.64508    0.68506   1.00
C5       0.66748    0.84612    0.50980   1.00
H2       0.66457    0.86988    0.48782   1.00
H2       0.69092    0.85512    0.53045   1.00
C5       0.62888    0.84001    0.53197   1.00
H2       0.61806    0.86838    0.54334   1.00
C5       0.32724    0.35083    1.13227   1.00
H2       0.29995    0.35931    1.14755   1.00
H2       0.33321    0.37454    1.11099   1.00
C5       0.36091    0.34767    1.16219   1.00
H2       0.37318    0.37699    1.16890   1.00
H2       0.38454    0.32875    1.15040   1.00
O_3      0.31269    0.21721    0.98000   1.00
C4       0.24956    0.25008    1.02100   1.00
C3c      0.26518    0.28132    1.04243   1.00
H1       0.27745    0.30610    1.02725   1.00
C3d      0.23321    0.21832    1.04135   1.00
C3       0.26577    0.28092    1.08354   1.00
O2       0.27712    0.31446    1.10248   1.00
C3       0.23443    0.21750    1.08227   1.00
H1       0.22279    0.19190    1.09657   1.00
C2       0.25050    0.24865    1.10439   1.00
C5       0.31114    0.17605    0.97879   1.00
H2       0.31248    0.16459    0.94838   1.00
H2       0.28385    0.16494    0.99266   1.00
C5       0.34614    0.16063    1.00122   1.00
H2       0.34539    0.17296    1.03129   1.00
H2       0.37321    0.17160    0.98691   1.00
C5       0.34595    0.11589    1.00254   1.00
H2       0.34642    0.10338    0.97260   1.00
H2       0.31960    0.10494    1.01803   1.00
H2       0.37220    0.10514    1.01830   1.00
C5       0.18073    0.19080    1.01105   1.00
C5       0.31753    0.31292    1.11070   1.00
H2       0.17721    0.21598    0.99088   1.00
H2       0.16182    0.19560    1.03712   1.00
H2       0.33454    0.31102    1.08300   1.00
H2       0.32560    0.28708    1.12895   1.00
H2       0.35044    0.33540    1.19055   1.00
H2       0.13292    0.17981    0.94250   1.00
H2       0.10613    0.17229    0.98766   1.00
C2       0.25089    0.24759    0.89605   1.00
C3       0.21993    0.26607    0.91597   1.00
O2       0.18563    0.27470    0.89674   1.00
C3       0.28196    0.23188    0.91826   1.00
H1       0.30658    0.21845    0.90385   1.00
C3a      0.22015    0.26755    0.95713   1.00
H1       0.19518    0.27981    0.97202   1.00
C3b      0.28149    0.23229    0.95922   1.00
C4       0.25040    0.25014    0.97900   1.00
O_3      0.22016    0.18556    1.02167   1.00
C5       0.18433    0.31473    0.88720   1.00
H2       0.18613    0.33331    0.91391   1.00
C5       0.14534    0.32202    0.86666   1.00
H2       0.20875    0.32275    0.86726   1.00
H2       0.12208    0.32430    0.88923   1.00
H2       0.13855    0.29560    0.84899   1.00
C5       0.14579    0.35877    0.84069   1.00
H2       0.15562    0.38430    0.85811   1.00
H2       0.11615    0.36493    0.82891   1.00
H2       0.16547    0.35492    0.81494   1.00
C5       0.16748    0.15388    0.99020   1.00
H2       0.16457    0.13012    1.01218   1.00
H2       0.19092    0.14488    0.96955   1.00
C5       0.12888    0.15999    0.96803   1.00
H2       0.11806    0.13162    0.95666   1.00
C5       0.35083    0.63227    0.82724   1.00
H2       0.35931    0.64755    0.79995   1.00
H2       0.37454    0.61099    0.83321   1.00
C5       0.34767    0.66219    0.86091   1.00
H2       0.37699    0.66890    0.87318   1.00
H2       0.32875    0.65040    0.88454   1.00
O_3      0.21721    0.48000    0.81269   1.00
C4       0.25008    0.52100    0.74956   1.00
C3c      0.28132    0.54243    0.76518   1.00
H1       0.30610    0.52725    0.77745   1.00
C3d      0.21832    0.54135    0.73321   1.00
C3       0.28092    0.58354    0.76577   1.00
O2       0.31446    0.60248    0.77712   1.00
C3       0.21750    0.58227    0.73443   1.00
H1       0.19190    0.59657    0.72279   1.00
C2       0.24865    0.60439    0.75050   1.00
C5       0.17605    0.47879    0.81114   1.00
H2       0.16459    0.44838    0.81248   1.00
H2       0.16494    0.49266    0.78385   1.00
C5       0.16063    0.50122    0.84614   1.00
H2       0.17296    0.53129    0.84539   1.00
H2       0.17160    0.48691    0.87321   1.00
C5       0.11589    0.50254    0.84595   1.00
H2       0.10338    0.47260    0.84642   1.00
H2       0.10494    0.51803    0.81960   1.00
H2       0.10514    0.51830    0.87220   1.00
C5       0.19080    0.51105    0.68073   1.00
C5       0.31292    0.61070    0.81753   1.00
H2       0.21598    0.49088    0.67721   1.00
H2       0.19560    0.53712    0.66182   1.00
H2       0.31102    0.58300    0.83454   1.00
H2       0.28708    0.62895    0.82560   1.00
H2       0.33540    0.69055    0.85044   1.00
H2       0.17981    0.44250    0.63292   1.00
H2       0.17229    0.48766    0.60613   1.00
C2       0.24759    0.39605    0.75089   1.00
C3       0.26607    0.41597    0.71993   1.00
O2       0.27470    0.39674    0.68563   1.00
C3       0.23188    0.41826    0.78196   1.00
H1       0.21845    0.40385    0.80658   1.00
C3a      0.26755    0.45713    0.72015   1.00
H1       0.27981    0.47202    0.69518   1.00
C3b      0.23229    0.45922    0.78149   1.00
C4       0.25014    0.47900    0.75040   1.00
O_3      0.18556    0.52167    0.72016   1.00
C5       0.31473    0.38720    0.68433   1.00
H2       0.33331    0.41391    0.68613   1.00
C5       0.32202    0.36666    0.64534   1.00
H2       0.32275    0.36726    0.70875   1.00
H2       0.32430    0.38923    0.62208   1.00
H2       0.29560    0.34899    0.63855   1.00
C5       0.35877    0.34069    0.64579   1.00
H2       0.38430    0.35811    0.65562   1.00
H2       0.36493    0.32891    0.61615   1.00
H2       0.35492    0.31494    0.66547   1.00
C5       0.15388    0.49020    0.66748   1.00
H2       0.13012    0.51218    0.66457   1.00
H2       0.14488    0.46955    0.69092   1.00
C5       0.15999    0.46803    0.62888   1.00
H2       0.13162    0.45666    0.61806   1.00
C5       -0.13227   0.32724    0.64917   1.00
H2       -0.14755   0.29995    0.64069   1.00
H2       -0.11099   0.33321    0.62546   1.00
C5       -0.16219   0.36091    0.65233   1.00
H2       -0.16890   0.37318    0.62301   1.00
H2       -0.15040   0.38454    0.67125   1.00
O_3      0.02000    0.31269    0.78279   1.00
C4       -0.02100   0.24956    0.74992   1.00
C3c      -0.04243   0.26518    0.71868   1.00
H1       -0.02725   0.27745    0.69390   1.00
C3d      -0.04135   0.23321    0.78168   1.00
C3       -0.08354   0.26577    0.71908   1.00
O2       -0.10248   0.27712    0.68554   1.00
C3       -0.08227   0.23443    0.78250   1.00
H1       -0.09657   0.22279    0.80810   1.00
C2       -0.10439   0.25050    0.75135   1.00
C5       0.02121    0.31114    0.82395   1.00
H2       0.05162    0.31248    0.83541   1.00
H2       0.00734    0.28385    0.83506   1.00
C5       -0.00122   0.34614    0.83937   1.00
H2       -0.03129   0.34539    0.82704   1.00
H2       0.01309    0.37321    0.82840   1.00
C5       -0.00254   0.34595    0.88411   1.00
H2       0.02740    0.34642    0.89662   1.00
H2       -0.01803   0.31960    0.89506   1.00
H2       -0.01830   0.37220    0.89486   1.00
C5       -0.01105   0.18073    0.80920   1.00
C5       -0.11070   0.31753    0.68708   1.00
H2       0.00912    0.17721    0.78402   1.00
H2       -0.03712   0.16182    0.80440   1.00
H2       -0.08300   0.33454    0.68898   1.00
H2       -0.12895   0.32560    0.71292   1.00
H2       -0.19055   0.35044    0.66460   1.00
H2       0.05750    0.13292    0.82019   1.00
H2       0.01234    0.10613    0.82771   1.00
C2       0.10395    0.25089    0.75241   1.00
C3       0.08403    0.21993    0.73393   1.00
O2       0.10326    0.18563    0.72530   1.00
C3       0.08174    0.28196    0.76812   1.00
H1       0.09615    0.30658    0.78155   1.00
C3a      0.04287    0.22015    0.73245   1.00
H1       0.02798    0.19518    0.72019   1.00
C3b      0.04078    0.28149    0.76771   1.00
C4       0.02100    0.25040    0.74986   1.00
O_3      -0.02167   0.22016    0.81444   1.00
C5       0.11280    0.18433    0.68527   1.00
H2       0.08609    0.18613    0.66669   1.00
C5       0.13334    0.14534    0.67798   1.00
H2       0.13274    0.20875    0.67725   1.00
H2       0.11077    0.12208    0.67570   1.00
H2       0.15101    0.13855    0.70440   1.00
C5       0.15931    0.14579    0.64123   1.00
H2       0.14189    0.15562    0.61570   1.00
H2       0.17109    0.11615    0.63507   1.00
H2       0.18506    0.16547    0.64508   1.00
C5       0.00980    0.16748    0.84612   1.00
H2       -0.01218   0.16457    0.86988   1.00
H2       0.03045    0.19092    0.85512   1.00
C5       0.03197    0.12888    0.84001   1.00
H2       0.04334    0.11806    0.86838   1.00
C5       0.63227    0.32724    0.85083   1.00
H2       0.64755    0.29995    0.85931   1.00
H2       0.61099    0.33321    0.87454   1.00
C5       0.66219    0.36091    0.84767   1.00
H2       0.66890    0.37318    0.87699   1.00
H2       0.65040    0.38454    0.82875   1.00
O_3      0.48000    0.31269    0.71721   1.00
C4       0.52100    0.24956    0.75008   1.00
C3c      0.54243    0.26518    0.78132   1.00
H1       0.52725    0.27745    0.80610   1.00
C3d      0.54135    0.23321    0.71832   1.00
C3       0.58354    0.26577    0.78092   1.00
O2       0.60248    0.27712    0.81446   1.00
C3       0.58227    0.23443    0.71750   1.00
H1       0.59657    0.22279    0.69190   1.00
C2       0.60439    0.25050    0.74865   1.00
C5       0.47879    0.31114    0.67605   1.00
H2       0.44838    0.31248    0.66459   1.00
H2       0.49266    0.28385    0.66494   1.00
C5       0.50122    0.34614    0.66063   1.00
H2       0.53129    0.34539    0.67296   1.00
H2       0.48691    0.37321    0.67160   1.00
C5       0.50254    0.34595    0.61589   1.00
H2       0.47260    0.34642    0.60338   1.00
H2       0.51803    0.31960    0.60494   1.00
H2       0.51830    0.37220    0.60514   1.00
C5       0.51105    0.18073    0.69080   1.00
C5       0.61070    0.31753    0.81292   1.00
H2       0.49088    0.17721    0.71598   1.00
H2       0.53712    0.16182    0.69560   1.00
H2       0.58300    0.33454    0.81102   1.00
H2       0.62895    0.32560    0.78708   1.00
H2       0.69055    0.35044    0.83540   1.00
H2       0.44250    0.13292    0.67981   1.00
H2       0.48766    0.10613    0.67229   1.00
C2       0.39605    0.25089    0.74759   1.00
C3       0.41597    0.21993    0.76607   1.00
O2       0.39674    0.18563    0.77470   1.00
C3       0.41826    0.28196    0.73188   1.00
H1       0.40385    0.30658    0.71845   1.00
C3a      0.45713    0.22015    0.76755   1.00
H1       0.47202    0.19518    0.77981   1.00
C3b      0.45922    0.28149    0.73229   1.00
C4       0.47900    0.25040    0.75014   1.00
O_3      0.52167    0.22016    0.68556   1.00
C5       0.38720    0.18433    0.81473   1.00
H2       0.41391    0.18613    0.83331   1.00
C5       0.36666    0.14534    0.82202   1.00
H2       0.36726    0.20875    0.82275   1.00
H2       0.38923    0.12208    0.82430   1.00
H2       0.34899    0.13855    0.79560   1.00
C5       0.34069    0.14579    0.85877   1.00
H2       0.35811    0.15562    0.88430   1.00
H2       0.32891    0.11615    0.86493   1.00
H2       0.31494    0.16547    0.85492   1.00
C5       0.49020    0.16748    0.65388   1.00
H2       0.51218    0.16457    0.63012   1.00
H2       0.46955    0.19092    0.64488   1.00
C5       0.46803    0.12888    0.65999   1.00
H2       0.45666    0.11806    0.63162   1.00
C5       0.14917    -0.13227   0.82724   1.00
H2       0.14069    -0.14755   0.79995   1.00
H2       0.12546    -0.11099   0.83321   1.00
C5       0.15233    -0.16219   0.86091   1.00
H2       0.12301    -0.16890   0.87318   1.00
H2       0.17125    -0.15040   0.88454   1.00
O_3      0.28279    0.02000    0.81269   1.00
C4       0.24992    -0.02100   0.74956   1.00
C3c      0.21868    -0.04243   0.76518   1.00
H1       0.19390    -0.02725   0.77745   1.00
C3d      0.28168    -0.04135   0.73321   1.00
C3       0.21908    -0.08354   0.76577   1.00
O2       0.18554    -0.10248   0.77712   1.00
C3       0.28250    -0.08227   0.73443   1.00
H1       0.30810    -0.09657   0.72279   1.00
C2       0.25135    -0.10439   0.75050   1.00
C5       0.32395    0.02121    0.81114   1.00
H2       0.33541    0.05162    0.81248   1.00
H2       0.33506    0.00734    0.78385   1.00
C5       0.33937    -0.00122   0.84614   1.00
H2       0.32704    -0.03129   0.84539   1.00
H2       0.32840    0.01309    0.87321   1.00
C5       0.38411    -0.00254   0.84595   1.00
H2       0.39662    0.02740    0.84642   1.00
H2       0.39506    -0.01803   0.81960   1.00
H2       0.39486    -0.01830   0.87220   1.00
C5       0.30920    -0.01105   0.68073   1.00
C5       0.18708    -0.11070   0.81753   1.00
H2       0.28402    0.00912    0.67721   1.00
H2       0.30440    -0.03712   0.66182   1.00
H2       0.18898    -0.08300   0.83454   1.00
H2       0.21292    -0.12895   0.82560   1.00
H2       0.16460    -0.19055   0.85044   1.00
H2       0.32019    0.05750    0.63292   1.00
H2       0.32771    0.01234    0.60613   1.00
C2       0.25241    0.10395    0.75089   1.00
C3       0.23393    0.08403    0.71993   1.00
O2       0.22530    0.10326    0.68563   1.00
C3       0.26812    0.08174    0.78196   1.00
H1       0.28155    0.09615    0.80658   1.00
C3a      0.23245    0.04287    0.72015   1.00
H1       0.22019    0.02798    0.69518   1.00
C3b      0.26771    0.04078    0.78149   1.00
C4       0.24986    0.02100    0.75040   1.00
O_3      0.31444    -0.02167   0.72016   1.00
C5       0.18527    0.11280    0.68433   1.00
H2       0.16669    0.08609    0.68613   1.00
C5       0.17798    0.13334    0.64534   1.00
H2       0.17725    0.13274    0.70875   1.00
H2       0.17570    0.11077    0.62208   1.00
H2       0.20440    0.15101    0.63855   1.00
C5       0.14123    0.15931    0.64579   1.00
H2       0.11570    0.14189    0.65562   1.00
H2       0.13507    0.17109    0.61615   1.00
H2       0.14508    0.18506    0.66547   1.00
C5       0.34612    0.00980    0.66748   1.00
H2       0.36988    -0.01218   0.66457   1.00
H2       0.35512    0.03045    0.69092   1.00
C5       0.34001    0.03197    0.62888   1.00
H2       0.36838    0.04334    0.61806   1.00
C5       0.32724    0.14917    0.36773   1.00
H2       0.29995    0.14069    0.35245   1.00
H2       0.33321    0.12546    0.38901   1.00
C5       0.36091    0.15233    0.33781   1.00
H2       0.37318    0.12301    0.33110   1.00
H2       0.38454    0.17125    0.34960   1.00
O_3      0.31269    0.28279    0.52000   1.00
C4       0.24956    0.24992    0.47900   1.00
C3c      0.26518    0.21868    0.45757   1.00
H1       0.27745    0.19390    0.47275   1.00
C3d      0.23321    0.28168    0.45865   1.00
C3       0.26577    0.21908    0.41646   1.00
O2       0.27712    0.18554    0.39752   1.00
C3       0.23443    0.28250    0.41773   1.00
H1       0.22279    0.30810    0.40343   1.00
C2       0.25050    0.25135    0.39561   1.00
C5       0.31114    0.32395    0.52121   1.00
H2       0.31248    0.33541    0.55162   1.00
H2       0.28385    0.33506    0.50734   1.00
C5       0.34614    0.33937    0.49878   1.00
H2       0.34539    0.32704    0.46871   1.00
H2       0.37321    0.32840    0.51309   1.00
C5       0.34595    0.38411    0.49746   1.00
H2       0.34642    0.39662    0.52740   1.00
H2       0.31960    0.39506    0.48197   1.00
H2       0.37220    0.39486    0.48170   1.00
C5       0.18073    0.30920    0.48895   1.00
C5       0.31753    0.18708    0.38930   1.00
H2       0.17721    0.28402    0.50912   1.00
H2       0.16182    0.30440    0.46288   1.00
H2       0.33454    0.18898    0.41700   1.00
H2       0.32560    0.21292    0.37105   1.00
H2       0.35044    0.16460    0.30945   1.00
H2       0.13292    0.32019    0.55750   1.00
H2       0.10613    0.32771    0.51234   1.00
C2       0.25089    0.25241    0.60395   1.00
C3       0.21993    0.23393    0.58403   1.00
O2       0.18563    0.22530    0.60326   1.00
C3       0.28196    0.26812    0.58174   1.00
H1       0.30658    0.28155    0.59615   1.00
C3a      0.22015    0.23245    0.54287   1.00
H1       0.19518    0.22019    0.52798   1.00
C3b      0.28149    0.26771    0.54078   1.00
C4       0.25040    0.24986    0.52100   1.00
O_3      0.22016    0.31444    0.47833   1.00
C5       0.18433    0.18527    0.61280   1.00
H2       0.18613    0.16669    0.58609   1.00
C5       0.14534    0.17798    0.63334   1.00
H2       0.20875    0.17725    0.63274   1.00
H2       0.12208    0.17570    0.61077   1.00
H2       0.13855    0.20440    0.65101   1.00
C5       0.14579    0.14123    0.65931   1.00
H2       0.15562    0.11570    0.64189   1.00
H2       0.11615    0.13507    0.67109   1.00
H2       0.16547    0.14508    0.68506   1.00
C5       0.16748    0.34612    0.50980   1.00
H2       0.16457    0.36988    0.48782   1.00
H2       0.19092    0.35512    0.53045   1.00
C5       0.12888    0.34001    0.53197   1.00
H2       0.11806    0.36838    0.54334   1.00
C5       0.32724    0.85083    0.63227   1.00
H2       0.29995    0.85931    0.64755   1.00
H2       0.33321    0.87454    0.61099   1.00
C5       0.36091    0.84767    0.66219   1.00
H2       0.37318    0.87699    0.66890   1.00
H2       0.38454    0.82875    0.65040   1.00
O_3      0.31269    0.71721    0.48000   1.00
C4       0.24956    0.75008    0.52100   1.00
C3c      0.26518    0.78132    0.54243   1.00
H1       0.27745    0.80610    0.52725   1.00
C3d      0.23321    0.71832    0.54135   1.00
C3       0.26577    0.78092    0.58354   1.00
O2       0.27712    0.81446    0.60248   1.00
C3       0.23443    0.71750    0.58227   1.00
H1       0.22279    0.69190    0.59657   1.00
C2       0.25050    0.74865    0.60439   1.00
C5       0.31114    0.67605    0.47879   1.00
H2       0.31248    0.66459    0.44838   1.00
H2       0.28385    0.66494    0.49266   1.00
C5       0.34614    0.66063    0.50122   1.00
H2       0.34539    0.67296    0.53129   1.00
H2       0.37321    0.67160    0.48691   1.00
C5       0.34595    0.61589    0.50254   1.00
H2       0.34642    0.60338    0.47260   1.00
H2       0.31960    0.60494    0.51803   1.00
H2       0.37220    0.60514    0.51830   1.00
C5       0.18073    0.69080    0.51105   1.00
C5       0.31753    0.81292    0.61070   1.00
H2       0.17721    0.71598    0.49088   1.00
H2       0.16182    0.69560    0.53712   1.00
H2       0.33454    0.81102    0.58300   1.00
H2       0.32560    0.78708    0.62895   1.00
H2       0.35044    0.83540    0.69055   1.00
H2       0.13292    0.67981    0.44250   1.00
H2       0.10613    0.67229    0.48766   1.00
C2       0.25089    0.74759    0.39605   1.00
C3       0.21993    0.76607    0.41597   1.00
O2       0.18563    0.77470    0.39674   1.00
C3       0.28196    0.73188    0.41826   1.00
H1       0.30658    0.71845    0.40385   1.00
C3a      0.22015    0.76755    0.45713   1.00
H1       0.19518    0.77981    0.47202   1.00
C3b      0.28149    0.73229    0.45922   1.00
C4       0.25040    0.75014    0.47900   1.00
O_3      0.22016    0.68556    0.52167   1.00
C5       0.18433    0.81473    0.38720   1.00
H2       0.18613    0.83331    0.41391   1.00
C5       0.14534    0.82202    0.36666   1.00
H2       0.20875    0.82275    0.36726   1.00
H2       0.12208    0.82430    0.38923   1.00
H2       0.13855    0.79560    0.34899   1.00
C5       0.14579    0.85877    0.34069   1.00
H2       0.15562    0.88430    0.35811   1.00
H2       0.11615    0.86493    0.32891   1.00
H2       0.16547    0.85492    0.31494   1.00
C5       0.16748    0.65388    0.49020   1.00
H2       0.16457    0.63012    0.51218   1.00
H2       0.19092    0.64488    0.46955   1.00
C5       0.12888    0.65999    0.46803   1.00
H2       0.11806    0.63162    0.45666   1.00
C5       0.35083    1.13227    0.32724   1.00
H2       0.35931    1.14755    0.29995   1.00
H2       0.37454    1.11099    0.33321   1.00
C5       0.34767    1.16219    0.36091   1.00
H2       0.37699    1.16890    0.37318   1.00
H2       0.32875    1.15040    0.38454   1.00
O_3      0.21721    0.98000    0.31269   1.00
C4       0.25008    1.02100    0.24956   1.00
C3c      0.28132    1.04243    0.26518   1.00
H1       0.30610    1.02725    0.27745   1.00
C3d      0.21832    1.04135    0.23321   1.00
C3       0.28092    1.08354    0.26577   1.00
O2       0.31446    1.10248    0.27712   1.00
C3       0.21750    1.08227    0.23443   1.00
H1       0.19190    1.09657    0.22279   1.00
C2       0.24865    1.10439    0.25050   1.00
C5       0.17605    0.97879    0.31114   1.00
H2       0.16459    0.94838    0.31248   1.00
H2       0.16494    0.99266    0.28385   1.00
C5       0.16063    1.00122    0.34614   1.00
H2       0.17296    1.03129    0.34539   1.00
H2       0.17160    0.98691    0.37321   1.00
C5       0.11589    1.00254    0.34595   1.00
H2       0.10338    0.97260    0.34642   1.00
H2       0.10494    1.01803    0.31960   1.00
H2       0.10514    1.01830    0.37220   1.00
C5       0.19080    1.01105    0.18073   1.00
C5       0.31292    1.11070    0.31753   1.00
H2       0.21598    0.99088    0.17721   1.00
H2       0.19560    1.03712    0.16182   1.00
H2       0.31102    1.08300    0.33454   1.00
H2       0.28708    1.12895    0.32560   1.00
H2       0.33540    1.19055    0.35044   1.00
H2       0.17981    0.94250    0.13292   1.00
H2       0.17229    0.98766    0.10613   1.00
C2       0.24759    0.89605    0.25089   1.00
C3       0.26607    0.91597    0.21993   1.00
O2       0.27470    0.89674    0.18563   1.00
C3       0.23188    0.91826    0.28196   1.00
H1       0.21845    0.90385    0.30658   1.00
C3a      0.26755    0.95713    0.22015   1.00
H1       0.27981    0.97202    0.19518   1.00
C3b      0.23229    0.95922    0.28149   1.00
C4       0.25014    0.97900    0.25040   1.00
O_3      0.18556    1.02167    0.22016   1.00
C5       0.31473    0.88720    0.18433   1.00
H2       0.33331    0.91391    0.18613   1.00
C5       0.32202    0.86666    0.14534   1.00
H2       0.32275    0.86726    0.20875   1.00
H2       0.32430    0.88923    0.12208   1.00
H2       0.29560    0.84899    0.13855   1.00
C5       0.35877    0.84069    0.14579   1.00
H2       0.38430    0.85811    0.15562   1.00
H2       0.36493    0.82891    0.11615   1.00
H2       0.35492    0.81494    0.16547   1.00
C5       0.15388    0.99020    0.16748   1.00
H2       0.13012    1.01218    0.16457   1.00
H2       0.14488    0.96955    0.19092   1.00
C5       0.15999    0.96803    0.12888   1.00
H2       0.13162    0.95666    0.11806   1.00
C5       -0.13227   0.82724    0.14917   1.00
H2       -0.14755   0.79995    0.14069   1.00
H2       -0.11099   0.83321    0.12546   1.00
C5       -0.16219   0.86091    0.15233   1.00
H2       -0.16890   0.87318    0.12301   1.00
H2       -0.15040   0.88454    0.17125   1.00
O_3      0.02000    0.81269    0.28279   1.00
C4       -0.02100   0.74956    0.24992   1.00
C3c      -0.04243   0.76518    0.21868   1.00
H1       -0.02725   0.77745    0.19390   1.00
C3d      -0.04135   0.73321    0.28168   1.00
C3       -0.08354   0.76577    0.21908   1.00
O2       -0.10248   0.77712    0.18554   1.00
C3       -0.08227   0.73443    0.28250   1.00
H1       -0.09657   0.72279    0.30810   1.00
C2       -0.10439   0.75050    0.25135   1.00
C5       0.02121    0.81114    0.32395   1.00
H2       0.05162    0.81248    0.33541   1.00
H2       0.00734    0.78385    0.33506   1.00
C5       -0.00122   0.84614    0.33937   1.00
H2       -0.03129   0.84539    0.32704   1.00
H2       0.01309    0.87321    0.32840   1.00
C5       -0.00254   0.84595    0.38411   1.00
H2       0.02740    0.84642    0.39662   1.00
H2       -0.01803   0.81960    0.39506   1.00
H2       -0.01830   0.87220    0.39486   1.00
C5       -0.01105   0.68073    0.30920   1.00
C5       -0.11070   0.81753    0.18708   1.00
H2       0.00912    0.67721    0.28402   1.00
H2       -0.03712   0.66182    0.30440   1.00
H2       -0.08300   0.83454    0.18898   1.00
H2       -0.12895   0.82560    0.21292   1.00
H2       -0.19055   0.85044    0.16460   1.00
H2       0.05750    0.63292    0.32019   1.00
H2       0.01234    0.60613    0.32771   1.00
C2       0.10395    0.75089    0.25241   1.00
C3       0.08403    0.71993    0.23393   1.00
O2       0.10326    0.68563    0.22530   1.00
C3       0.08174    0.78196    0.26812   1.00
H1       0.09615    0.80658    0.28155   1.00
C3a      0.04287    0.72015    0.23245   1.00
H1       0.02798    0.69518    0.22019   1.00
C3b      0.04078    0.78149    0.26771   1.00
C4       0.02100    0.75040    0.24986   1.00
O_3      -0.02167   0.72016    0.31444   1.00
C5       0.11280    0.68433    0.18527   1.00
H2       0.08609    0.68613    0.16669   1.00
C5       0.13334    0.64534    0.17798   1.00
H2       0.13274    0.70875    0.17725   1.00
H2       0.11077    0.62208    0.17570   1.00
H2       0.15101    0.63855    0.20440   1.00
C5       0.15931    0.64579    0.14123   1.00
H2       0.14189    0.65562    0.11570   1.00
H2       0.17109    0.61615    0.13507   1.00
H2       0.18506    0.66547    0.14508   1.00
C5       0.00980    0.66748    0.34612   1.00
H2       -0.01218   0.66457    0.36988   1.00
H2       0.03045    0.69092    0.35512   1.00
C5       0.03197    0.62888    0.34001   1.00
H2       0.04334    0.61806    0.36838   1.00
C5       0.63227    0.82724    0.35083   1.00
H2       0.64755    0.79995    0.35931   1.00
H2       0.61099    0.83321    0.37454   1.00
C5       0.66219    0.86091    0.34767   1.00
H2       0.66890    0.87318    0.37699   1.00
H2       0.65040    0.88454    0.32875   1.00
O_3      0.48000    0.81269    0.21721   1.00
C4       0.52100    0.74956    0.25008   1.00
C3c      0.54243    0.76518    0.28132   1.00
H1       0.52725    0.77745    0.30610   1.00
C3d      0.54135    0.73321    0.21832   1.00
C3       0.58354    0.76577    0.28092   1.00
O2       0.60248    0.77712    0.31446   1.00
C3       0.58227    0.73443    0.21750   1.00
H1       0.59657    0.72279    0.19190   1.00
C2       0.60439    0.75050    0.24865   1.00
C5       0.47879    0.81114    0.17605   1.00
H2       0.44838    0.81248    0.16459   1.00
H2       0.49266    0.78385    0.16494   1.00
C5       0.50122    0.84614    0.16063   1.00
H2       0.53129    0.84539    0.17296   1.00
H2       0.48691    0.87321    0.17160   1.00
C5       0.50254    0.84595    0.11589   1.00
H2       0.47260    0.84642    0.10338   1.00
H2       0.51803    0.81960    0.10494   1.00
H2       0.51830    0.87220    0.10514   1.00
C5       0.51105    0.68073    0.19080   1.00
C5       0.61070    0.81753    0.31292   1.00
H2       0.49088    0.67721    0.21598   1.00
H2       0.53712    0.66182    0.19560   1.00
H2       0.58300    0.83454    0.31102   1.00
H2       0.62895    0.82560    0.28708   1.00
H2       0.69055    0.85044    0.33540   1.00
H2       0.44250    0.63292    0.17981   1.00
H2       0.48766    0.60613    0.17229   1.00
C2       0.39605    0.75089    0.24759   1.00
C3       0.41597    0.71993    0.26607   1.00
O2       0.39674    0.68563    0.27470   1.00
C3       0.41826    0.78196    0.23188   1.00
H1       0.40385    0.80658    0.21845   1.00
C3a      0.45713    0.72015    0.26755   1.00
H1       0.47202    0.69518    0.27981   1.00
C3b      0.45922    0.78149    0.23229   1.00
C4       0.47900    0.75040    0.25014   1.00
O_3      0.52167    0.72016    0.18556   1.00
C5       0.38720    0.68433    0.31473   1.00
H2       0.41391    0.68613    0.33331   1.00
C5       0.36666    0.64534    0.32202   1.00
H2       0.36726    0.70875    0.32275   1.00
H2       0.38923    0.62208    0.32430   1.00
H2       0.34899    0.63855    0.29560   1.00
C5       0.34069    0.64579    0.35877   1.00
H2       0.35811    0.65562    0.38430   1.00
H2       0.32891    0.61615    0.36493   1.00
H2       0.31494    0.66547    0.35492   1.00
C5       0.49020    0.66748    0.15388   1.00
H2       0.51218    0.66457    0.13012   1.00
H2       0.46955    0.69092    0.14488   1.00
C5       0.46803    0.62888    0.15999   1.00
H2       0.45666    0.61806    0.13162   1.00
C5       0.14917    0.36773    0.32724   1.00
H2       0.14069    0.35245    0.29995   1.00
H2       0.12546    0.38901    0.33321   1.00
C5       0.15233    0.33781    0.36091   1.00
H2       0.12301    0.33110    0.37318   1.00
H2       0.17125    0.34960    0.38454   1.00
O_3      0.28279    0.52000    0.31269   1.00
C4       0.24992    0.47900    0.24956   1.00
C3c      0.21868    0.45757    0.26518   1.00
H1       0.19390    0.47275    0.27745   1.00
C3d      0.28168    0.45865    0.23321   1.00
C3       0.21908    0.41646    0.26577   1.00
O2       0.18554    0.39752    0.27712   1.00
C3       0.28250    0.41773    0.23443   1.00
H1       0.30810    0.40343    0.22279   1.00
C2       0.25135    0.39561    0.25050   1.00
C5       0.32395    0.52121    0.31114   1.00
H2       0.33541    0.55162    0.31248   1.00
H2       0.33506    0.50734    0.28385   1.00
C5       0.33937    0.49878    0.34614   1.00
H2       0.32704    0.46871    0.34539   1.00
H2       0.32840    0.51309    0.37321   1.00
C5       0.38411    0.49746    0.34595   1.00
H2       0.39662    0.52740    0.34642   1.00
H2       0.39506    0.48197    0.31960   1.00
H2       0.39486    0.48170    0.37220   1.00
C5       0.30920    0.48895    0.18073   1.00
C5       0.18708    0.38930    0.31753   1.00
H2       0.28402    0.50912    0.17721   1.00
H2       0.30440    0.46288    0.16182   1.00
H2       0.18898    0.41700    0.33454   1.00
H2       0.21292    0.37105    0.32560   1.00
H2       0.16460    0.30945    0.35044   1.00
H2       0.32019    0.55750    0.13292   1.00
H2       0.32771    0.51234    0.10613   1.00
C2       0.25241    0.60395    0.25089   1.00
C3       0.23393    0.58403    0.21993   1.00
O2       0.22530    0.60326    0.18563   1.00
C3       0.26812    0.58174    0.28196   1.00
H1       0.28155    0.59615    0.30658   1.00
C3a      0.23245    0.54287    0.22015   1.00
H1       0.22019    0.52798    0.19518   1.00
C3b      0.26771    0.54078    0.28149   1.00
C4       0.24986    0.52100    0.25040   1.00
O_3      0.31444    0.47833    0.22016   1.00
C5       0.18527    0.61280    0.18433   1.00
H2       0.16669    0.58609    0.18613   1.00
C5       0.17798    0.63334    0.14534   1.00
H2       0.17725    0.63274    0.20875   1.00
H2       0.17570    0.61077    0.12208   1.00
H2       0.20440    0.65101    0.13855   1.00
C5       0.14123    0.65931    0.14579   1.00
H2       0.11570    0.64189    0.15562   1.00
H2       0.13507    0.67109    0.11615   1.00
H2       0.14508    0.68506    0.16547   1.00
C5       0.34612    0.50980    0.16748   1.00
H2       0.36988    0.48782    0.16457   1.00
H2       0.35512    0.53045    0.19092   1.00
C5       0.34001    0.53197    0.12888   1.00
H2       0.36838    0.54334    0.11806   1.00
C5       0.32724    0.64917    -0.13227   1.00
H2       0.29995    0.64069    -0.14755   1.00
H2       0.33321    0.62546    -0.11099   1.00
C5       0.36091    0.65233    -0.16219   1.00
H2       0.37318    0.62301    -0.16890   1.00
H2       0.38454    0.67125    -0.15040   1.00
O_3      0.31269    0.78279    0.02000   1.00
C4       0.24956    0.74992    -0.02100   1.00
C3c      0.26518    0.71868    -0.04243   1.00
H1       0.27745    0.69390    -0.02725   1.00
C3d      0.23321    0.78168    -0.04135   1.00
C3       0.26577    0.71908    -0.08354   1.00
O2       0.27712    0.68554    -0.10248   1.00
C3       0.23443    0.78250    -0.08227   1.00
H1       0.22279    0.80810    -0.09657   1.00
C2       0.25050    0.75135    -0.10439   1.00
C5       0.31114    0.82395    0.02121   1.00
H2       0.31248    0.83541    0.05162   1.00
H2       0.28385    0.83506    0.00734   1.00
C5       0.34614    0.83937    -0.00122   1.00
H2       0.34539    0.82704    -0.03129   1.00
H2       0.37321    0.82840    0.01309   1.00
C5       0.34595    0.88411    -0.00254   1.00
H2       0.34642    0.89662    0.02740   1.00
H2       0.31960    0.89506    -0.01803   1.00
H2       0.37220    0.89486    -0.01830   1.00
C5       0.18073    0.80920    -0.01105   1.00
C5       0.31753    0.68708    -0.11070   1.00
H2       0.17721    0.78402    0.00912   1.00
H2       0.16182    0.80440    -0.03712   1.00
H2       0.33454    0.68898    -0.08300   1.00
H2       0.32560    0.71292    -0.12895   1.00
H2       0.35044    0.66460    -0.19055   1.00
H2       0.13292    0.82019    0.05750   1.00
H2       0.10613    0.82771    0.01234   1.00
C2       0.25089    0.75241    0.10395   1.00
C3       0.21993    0.73393    0.08403   1.00
O2       0.18563    0.72530    0.10326   1.00
C3       0.28196    0.76812    0.08174   1.00
H1       0.30658    0.78155    0.09615   1.00
C3a      0.22015    0.73245    0.04287   1.00
H1       0.19518    0.72019    0.02798   1.00
C3b      0.28149    0.76771    0.04078   1.00
C4       0.25040    0.74986    0.02100   1.00
O_3      0.22016    0.81444    -0.02167   1.00
C5       0.18433    0.68527    0.11280   1.00
H2       0.18613    0.66669    0.08609   1.00
C5       0.14534    0.67798    0.13334   1.00
H2       0.20875    0.67725    0.13274   1.00
H2       0.12208    0.67570    0.11077   1.00
H2       0.13855    0.70440    0.15101   1.00
C5       0.14579    0.64123    0.15931   1.00
H2       0.15562    0.61570    0.14189   1.00
H2       0.11615    0.63507    0.17109   1.00
H2       0.16547    0.64508    0.18506   1.00
C5       0.16748    0.84612    0.00980   1.00
H2       0.16457    0.86988    -0.01218   1.00
H2       0.19092    0.85512    0.03045   1.00
C5       0.12888    0.84001    0.03197   1.00
H2       0.11806    0.86838    0.04334   1.00
C5       0.82724    0.35083    0.63227   1.00
H2       0.79995    0.35931    0.64755   1.00
H2       0.83321    0.37454    0.61099   1.00
C5       0.86091    0.34767    0.66219   1.00
H2       0.87318    0.37699    0.66890   1.00
H2       0.88454    0.32875    0.65040   1.00
O_3      0.81269    0.21721    0.48000   1.00
C4       0.74956    0.25008    0.52100   1.00
C3c      0.76518    0.28132    0.54243   1.00
H1       0.77745    0.30610    0.52725   1.00
C3d      0.73321    0.21832    0.54135   1.00
C3       0.76577    0.28092    0.58354   1.00
O2       0.77712    0.31446    0.60248   1.00
C3       0.73443    0.21750    0.58227   1.00
H1       0.72279    0.19190    0.59657   1.00
C2       0.75050    0.24865    0.60439   1.00
C5       0.81114    0.17605    0.47879   1.00
H2       0.81248    0.16459    0.44838   1.00
H2       0.78385    0.16494    0.49266   1.00
C5       0.84614    0.16063    0.50122   1.00
H2       0.84539    0.17296    0.53129   1.00
H2       0.87321    0.17160    0.48691   1.00
C5       0.84595    0.11589    0.50254   1.00
H2       0.84642    0.10338    0.47260   1.00
H2       0.81960    0.10494    0.51803   1.00
H2       0.87220    0.10514    0.51830   1.00
C5       0.68073    0.19080    0.51105   1.00
C5       0.81753    0.31292    0.61070   1.00
H2       0.67721    0.21598    0.49088   1.00
H2       0.66182    0.19560    0.53712   1.00
H2       0.83454    0.31102    0.58300   1.00
H2       0.82560    0.28708    0.62895   1.00
H2       0.85044    0.33540    0.69055   1.00
H2       0.63292    0.17981    0.44250   1.00
H2       0.60613    0.17229    0.48766   1.00
C2       0.75089    0.24759    0.39605   1.00
C3       0.71993    0.26607    0.41597   1.00
O2       0.68563    0.27470    0.39674   1.00
C3       0.78196    0.23188    0.41826   1.00
H1       0.80658    0.21845    0.40385   1.00
C3a      0.72015    0.26755    0.45713   1.00
H1       0.69518    0.27981    0.47202   1.00
C3b      0.78149    0.23229    0.45922   1.00
C4       0.75040    0.25014    0.47900   1.00
O_3      0.72016    0.18556    0.52167   1.00
C5       0.68433    0.31473    0.38720   1.00
H2       0.68613    0.33331    0.41391   1.00
C5       0.64534    0.32202    0.36666   1.00
H2       0.70875    0.32275    0.36726   1.00
H2       0.62208    0.32430    0.38923   1.00
H2       0.63855    0.29560    0.34899   1.00
C5       0.64579    0.35877    0.34069   1.00
H2       0.65562    0.38430    0.35811   1.00
H2       0.61615    0.36493    0.32891   1.00
H2       0.66547    0.35492    0.31494   1.00
C5       0.66748    0.15388    0.49020   1.00
H2       0.66457    0.13012    0.51218   1.00
H2       0.69092    0.14488    0.46955   1.00
C5       0.62888    0.15999    0.46803   1.00
H2       0.61806    0.13162    0.45666   1.00
C5       0.85083    0.63227    0.32724   1.00
H2       0.85931    0.64755    0.29995   1.00
H2       0.87454    0.61099    0.33321   1.00
C5       0.84767    0.66219    0.36091   1.00
H2       0.87699    0.66890    0.37318   1.00
H2       0.82875    0.65040    0.38454   1.00
O_3      0.71721    0.48000    0.31269   1.00
C4       0.75008    0.52100    0.24956   1.00
C3c      0.78132    0.54243    0.26518   1.00
H1       0.80610    0.52725    0.27745   1.00
C3d      0.71832    0.54135    0.23321   1.00
C3       0.78092    0.58354    0.26577   1.00
O2       0.81446    0.60248    0.27712   1.00
C3       0.71750    0.58227    0.23443   1.00
H1       0.69190    0.59657    0.22279   1.00
C2       0.74865    0.60439    0.25050   1.00
C5       0.67605    0.47879    0.31114   1.00
H2       0.66459    0.44838    0.31248   1.00
H2       0.66494    0.49266    0.28385   1.00
C5       0.66063    0.50122    0.34614   1.00
H2       0.67296    0.53129    0.34539   1.00
H2       0.67160    0.48691    0.37321   1.00
C5       0.61589    0.50254    0.34595   1.00
H2       0.60338    0.47260    0.34642   1.00
H2       0.60494    0.51803    0.31960   1.00
H2       0.60514    0.51830    0.37220   1.00
C5       0.69080    0.51105    0.18073   1.00
C5       0.81292    0.61070    0.31753   1.00
H2       0.71598    0.49088    0.17721   1.00
H2       0.69560    0.53712    0.16182   1.00
H2       0.81102    0.58300    0.33454   1.00
H2       0.78708    0.62895    0.32560   1.00
H2       0.83540    0.69055    0.35044   1.00
H2       0.67981    0.44250    0.13292   1.00
H2       0.67229    0.48766    0.10613   1.00
C2       0.74759    0.39605    0.25089   1.00
C3       0.76607    0.41597    0.21993   1.00
O2       0.77470    0.39674    0.18563   1.00
C3       0.73188    0.41826    0.28196   1.00
H1       0.71845    0.40385    0.30658   1.00
C3a      0.76755    0.45713    0.22015   1.00
H1       0.77981    0.47202    0.19518   1.00
C3b      0.73229    0.45922    0.28149   1.00
C4       0.75014    0.47900    0.25040   1.00
O_3      0.68556    0.52167    0.22016   1.00
C5       0.81473    0.38720    0.18433   1.00
H2       0.83331    0.41391    0.18613   1.00
C5       0.82202    0.36666    0.14534   1.00
H2       0.82275    0.36726    0.20875   1.00
H2       0.82430    0.38923    0.12208   1.00
H2       0.79560    0.34899    0.13855   1.00
C5       0.85877    0.34069    0.14579   1.00
H2       0.88430    0.35811    0.15562   1.00
H2       0.86493    0.32891    0.11615   1.00
H2       0.85492    0.31494    0.16547   1.00
C5       0.65388    0.49020    0.16748   1.00
H2       0.63012    0.51218    0.16457   1.00
H2       0.64488    0.46955    0.19092   1.00
C5       0.65999    0.46803    0.12888   1.00
H2       0.63162    0.45666    0.11806   1.00
C5       0.36773    0.32724    0.14917   1.00
H2       0.35245    0.29995    0.14069   1.00
H2       0.38901    0.33321    0.12546   1.00
C5       0.33781    0.36091    0.15233   1.00
H2       0.33110    0.37318    0.12301   1.00
H2       0.34960    0.38454    0.17125   1.00
O_3      0.52000    0.31269    0.28279   1.00
C4       0.47900    0.24956    0.24992   1.00
C3c      0.45757    0.26518    0.21868   1.00
H1       0.47275    0.27745    0.19390   1.00
C3d      0.45865    0.23321    0.28168   1.00
C3       0.41646    0.26577    0.21908   1.00
O2       0.39752    0.27712    0.18554   1.00
C3       0.41773    0.23443    0.28250   1.00
H1       0.40343    0.22279    0.30810   1.00
C2       0.39561    0.25050    0.25135   1.00
C5       0.52121    0.31114    0.32395   1.00
H2       0.55162    0.31248    0.33541   1.00
H2       0.50734    0.28385    0.33506   1.00
C5       0.49878    0.34614    0.33937   1.00
H2       0.46871    0.34539    0.32704   1.00
H2       0.51309    0.37321    0.32840   1.00
C5       0.49746    0.34595    0.38411   1.00
H2       0.52740    0.34642    0.39662   1.00
H2       0.48197    0.31960    0.39506   1.00
H2       0.48170    0.37220    0.39486   1.00
C5       0.48895    0.18073    0.30920   1.00
C5       0.38930    0.31753    0.18708   1.00
H2       0.50912    0.17721    0.28402   1.00
H2       0.46288    0.16182    0.30440   1.00
H2       0.41700    0.33454    0.18898   1.00
H2       0.37105    0.32560    0.21292   1.00
H2       0.30945    0.35044    0.16460   1.00
H2       0.55750    0.13292    0.32019   1.00
H2       0.51234    0.10613    0.32771   1.00
C2       0.60395    0.25089    0.25241   1.00
C3       0.58403    0.21993    0.23393   1.00
O2       0.60326    0.18563    0.22530   1.00
C3       0.58174    0.28196    0.26812   1.00
H1       0.59615    0.30658    0.28155   1.00
C3a      0.54287    0.22015    0.23245   1.00
H1       0.52798    0.19518    0.22019   1.00
C3b      0.54078    0.28149    0.26771   1.00
C4       0.52100    0.25040    0.24986   1.00
O_3      0.47833    0.22016    0.31444   1.00
C5       0.61280    0.18433    0.18527   1.00
H2       0.58609    0.18613    0.16669   1.00
C5       0.63334    0.14534    0.17798   1.00
H2       0.63274    0.20875    0.17725   1.00
H2       0.61077    0.12208    0.17570   1.00
H2       0.65101    0.13855    0.20440   1.00
C5       0.65931    0.14579    0.14123   1.00
H2       0.64189    0.15562    0.11570   1.00
H2       0.67109    0.11615    0.13507   1.00
H2       0.68506    0.16547    0.14508   1.00
C5       0.50980    0.16748    0.34612   1.00
H2       0.48782    0.16457    0.36988   1.00
H2       0.53045    0.19092    0.35512   1.00
C5       0.53197    0.12888    0.34001   1.00
H2       0.54334    0.11806    0.36838   1.00
C5       1.13227    0.32724    0.35083   1.00
H2       1.14755    0.29995    0.35931   1.00
H2       1.11099    0.33321    0.37454   1.00
C5       1.16219    0.36091    0.34767   1.00
H2       1.16890    0.37318    0.37699   1.00
H2       1.15040    0.38454    0.32875   1.00
O_3      0.98000    0.31269    0.21721   1.00
C4       1.02100    0.24956    0.25008   1.00
C3c      1.04243    0.26518    0.28132   1.00
H1       1.02725    0.27745    0.30610   1.00
C3d      1.04135    0.23321    0.21832   1.00
C3       1.08354    0.26577    0.28092   1.00
O2       1.10248    0.27712    0.31446   1.00
C3       1.08227    0.23443    0.21750   1.00
H1       1.09657    0.22279    0.19190   1.00
C2       1.10439    0.25050    0.24865   1.00
C5       0.97879    0.31114    0.17605   1.00
H2       0.94838    0.31248    0.16459   1.00
H2       0.99266    0.28385    0.16494   1.00
C5       1.00122    0.34614    0.16063   1.00
H2       1.03129    0.34539    0.17296   1.00
H2       0.98691    0.37321    0.17160   1.00
C5       1.00254    0.34595    0.11589   1.00
H2       0.97260    0.34642    0.10338   1.00
H2       1.01803    0.31960    0.10494   1.00
H2       1.01830    0.37220    0.10514   1.00
C5       1.01105    0.18073    0.19080   1.00
C5       1.11070    0.31753    0.31292   1.00
H2       0.99088    0.17721    0.21598   1.00
H2       1.03712    0.16182    0.19560   1.00
H2       1.08300    0.33454    0.31102   1.00
H2       1.12895    0.32560    0.28708   1.00
H2       1.19055    0.35044    0.33540   1.00
H2       0.94250    0.13292    0.17981   1.00
H2       0.98766    0.10613    0.17229   1.00
C2       0.89605    0.25089    0.24759   1.00
C3       0.91597    0.21993    0.26607   1.00
O2       0.89674    0.18563    0.27470   1.00
C3       0.91826    0.28196    0.23188   1.00
H1       0.90385    0.30658    0.21845   1.00
C3a      0.95713    0.22015    0.26755   1.00
H1       0.97202    0.19518    0.27981   1.00
C3b      0.95922    0.28149    0.23229   1.00
C4       0.97900    0.25040    0.25014   1.00
O_3      1.02167    0.22016    0.18556   1.00
C5       0.88720    0.18433    0.31473   1.00
H2       0.91391    0.18613    0.33331   1.00
C5       0.86666    0.14534    0.32202   1.00
H2       0.86726    0.20875    0.32275   1.00
H2       0.88923    0.12208    0.32430   1.00
H2       0.84899    0.13855    0.29560   1.00
C5       0.84069    0.14579    0.35877   1.00
H2       0.85811    0.15562    0.38430   1.00
H2       0.82891    0.11615    0.36493   1.00
H2       0.81494    0.16547    0.35492   1.00
C5       0.99020    0.16748    0.15388   1.00
H2       1.01218    0.16457    0.13012   1.00
H2       0.96955    0.19092    0.14488   1.00
C5       0.96803    0.12888    0.15999   1.00
H2       0.95666    0.11806    0.13162   1.00
C5       0.64917    -0.13227   0.32724   1.00
H2       0.64069    -0.14755   0.29995   1.00
H2       0.62546    -0.11099   0.33321   1.00
C5       0.65233    -0.16219   0.36091   1.00
H2       0.62301    -0.16890   0.37318   1.00
H2       0.67125    -0.15040   0.38454   1.00
O_3      0.78279    0.02000    0.31269   1.00
C4       0.74992    -0.02100   0.24956   1.00
C3c      0.71868    -0.04243   0.26518   1.00
H1       0.69390    -0.02725   0.27745   1.00
C3d      0.78168    -0.04135   0.23321   1.00
C3       0.71908    -0.08354   0.26577   1.00
O2       0.68554    -0.10248   0.27712   1.00
C3       0.78250    -0.08227   0.23443   1.00
H1       0.80810    -0.09657   0.22279   1.00
C2       0.75135    -0.10439   0.25050   1.00
C5       0.82395    0.02121    0.31114   1.00
H2       0.83541    0.05162    0.31248   1.00
H2       0.83506    0.00734    0.28385   1.00
C5       0.83937    -0.00122   0.34614   1.00
H2       0.82704    -0.03129   0.34539   1.00
H2       0.82840    0.01309    0.37321   1.00
C5       0.88411    -0.00254   0.34595   1.00
H2       0.89662    0.02740    0.34642   1.00
H2       0.89506    -0.01803   0.31960   1.00
H2       0.89486    -0.01830   0.37220   1.00
C5       0.80920    -0.01105   0.18073   1.00
C5       0.68708    -0.11070   0.31753   1.00
H2       0.78402    0.00912    0.17721   1.00
H2       0.80440    -0.03712   0.16182   1.00
H2       0.68898    -0.08300   0.33454   1.00
H2       0.71292    -0.12895   0.32560   1.00
H2       0.66460    -0.19055   0.35044   1.00
H2       0.82019    0.05750    0.13292   1.00
H2       0.82771    0.01234    0.10613   1.00
C2       0.75241    0.10395    0.25089   1.00
C3       0.73393    0.08403    0.21993   1.00
O2       0.72530    0.10326    0.18563   1.00
C3       0.76812    0.08174    0.28196   1.00
H1       0.78155    0.09615    0.30658   1.00
C3a      0.73245    0.04287    0.22015   1.00
H1       0.72019    0.02798    0.19518   1.00
C3b      0.76771    0.04078    0.28149   1.00
C4       0.74986    0.02100    0.25040   1.00
O_3      0.81444    -0.02167   0.22016   1.00
C5       0.68527    0.11280    0.18433   1.00
H2       0.66669    0.08609    0.18613   1.00
C5       0.67798    0.13334    0.14534   1.00
H2       0.67725    0.13274    0.20875   1.00
H2       0.67570    0.11077    0.12208   1.00
H2       0.70440    0.15101    0.13855   1.00
C5       0.64123    0.15931    0.14579   1.00
H2       0.61570    0.14189    0.15562   1.00
H2       0.63507    0.17109    0.11615   1.00
H2       0.64508    0.18506    0.16547   1.00
C5       0.84612    0.00980    0.16748   1.00
H2       0.86988    -0.01218   0.16457   1.00
H2       0.85512    0.03045    0.19092   1.00
C5       0.84001    0.03197    0.12888   1.00
H2       0.86838    0.04334    0.11806   1.00
C5       0.82724    0.14917    -0.13227   1.00
H2       0.79995    0.14069    -0.14755   1.00
H2       0.83321    0.12546    -0.11099   1.00
C5       0.86091    0.15233    -0.16219   1.00
H2       0.87318    0.12301    -0.16890   1.00
H2       0.88454    0.17125    -0.15040   1.00
O_3      0.81269    0.28279    0.02000   1.00
C4       0.74956    0.24992    -0.02100   1.00
C3c      0.76518    0.21868    -0.04243   1.00
H1       0.77745    0.19390    -0.02725   1.00
C3d      0.73321    0.28168    -0.04135   1.00
C3       0.76577    0.21908    -0.08354   1.00
O2       0.77712    0.18554    -0.10248   1.00
C3       0.73443    0.28250    -0.08227   1.00
H1       0.72279    0.30810    -0.09657   1.00
C2       0.75050    0.25135    -0.10439   1.00
C5       0.81114    0.32395    0.02121   1.00
H2       0.81248    0.33541    0.05162   1.00
H2       0.78385    0.33506    0.00734   1.00
C5       0.84614    0.33937    -0.00122   1.00
H2       0.84539    0.32704    -0.03129   1.00
H2       0.87321    0.32840    0.01309   1.00
C5       0.84595    0.38411    -0.00254   1.00
H2       0.84642    0.39662    0.02740   1.00
H2       0.81960    0.39506    -0.01803   1.00
H2       0.87220    0.39486    -0.01830   1.00
C5       0.68073    0.30920    -0.01105   1.00
C5       0.81753    0.18708    -0.11070   1.00
H2       0.67721    0.28402    0.00912   1.00
H2       0.66182    0.30440    -0.03712   1.00
H2       0.83454    0.18898    -0.08300   1.00
H2       0.82560    0.21292    -0.12895   1.00
H2       0.85044    0.16460    -0.19055   1.00
H2       0.63292    0.32019    0.05750   1.00
H2       0.60613    0.32771    0.01234   1.00
C2       0.75089    0.25241    0.10395   1.00
C3       0.71993    0.23393    0.08403   1.00
O2       0.68563    0.22530    0.10326   1.00
C3       0.78196    0.26812    0.08174   1.00
H1       0.80658    0.28155    0.09615   1.00
C3a      0.72015    0.23245    0.04287   1.00
H1       0.69518    0.22019    0.02798   1.00
C3b      0.78149    0.26771    0.04078   1.00
C4       0.75040    0.24986    0.02100   1.00
O_3      0.72016    0.31444    -0.02167   1.00
C5       0.68433    0.18527    0.11280   1.00
H2       0.68613    0.16669    0.08609   1.00
C5       0.64534    0.17798    0.13334   1.00
H2       0.70875    0.17725    0.13274   1.00
H2       0.62208    0.17570    0.11077   1.00
H2       0.63855    0.20440    0.15101   1.00
C5       0.64579    0.14123    0.15931   1.00
H2       0.65562    0.11570    0.14189   1.00
H2       0.61615    0.13507    0.17109   1.00
H2       0.66547    0.14508    0.18506   1.00
C5       0.66748    0.34612    0.00980   1.00
H2       0.66457    0.36988    -0.01218   1.00
H2       0.69092    0.35512    0.03045   1.00
C5       0.62888    0.34001    0.03197   1.00
H2       0.61806    0.36838    0.04334   1.00
C5       1.07724    1.10083    1.38227   1.00
H2       1.04995    1.10931    1.39755   1.00
H2       1.08321    1.12454    1.36099   1.00
C5       1.11091    1.09767    1.41219   1.00
H2       1.12318    1.12699    1.41890   1.00
H2       1.13454    1.07875    1.40040   1.00
O_3      1.06269    0.96721    1.23000   1.00
C4       0.99956    1.00008    1.27100   1.00
C3c      1.01518    1.03132    1.29243   1.00
H1       1.02745    1.05610    1.27725   1.00
C3d      0.98321    0.96832    1.29135   1.00
C3       1.01577    1.03092    1.33354   1.00
O2       1.02712    1.06446    1.35248   1.00
C3       0.98443    0.96750    1.33227   1.00
H1       0.97279    0.94190    1.34657   1.00
C2       1.00050    0.99865    1.35439   1.00
C5       1.06114    0.92605    1.22879   1.00
H2       1.06248    0.91459    1.19838   1.00
H2       1.03385    0.91494    1.24266   1.00
C5       1.09614    0.91063    1.25122   1.00
H2       1.09539    0.92296    1.28129   1.00
H2       1.12321    0.92160    1.23691   1.00
C5       1.09595    0.86589    1.25254   1.00
H2       1.09642    0.85338    1.22260   1.00
H2       1.06960    0.85494    1.26803   1.00
H2       1.12220    0.85514    1.26830   1.00
C5       0.93073    0.94080    1.26105   1.00
C5       1.06753    1.06292    1.36070   1.00
H2       0.92721    0.96598    1.24088   1.00
H2       0.91182    0.94560    1.28712   1.00
H2       1.08454    1.06102    1.33300   1.00
H2       1.07560    1.03708    1.37895   1.00
H2       1.10044    1.08540    1.44055   1.00
H2       0.88292    0.92981    1.19250   1.00
H2       0.85613    0.92229    1.23766   1.00
C2       1.00089    0.99759    1.14605   1.00
C3       0.96993    1.01607    1.16597   1.00
O2       0.93563    1.02470    1.14674   1.00
C3       1.03196    0.98188    1.16826   1.00
H1       1.05658    0.96845    1.15385   1.00
C3a      0.97015    1.01755    1.20713   1.00
H1       0.94518    1.02981    1.22202   1.00
C3b      1.03149    0.98229    1.20922   1.00
C4       1.00040    1.00014    1.22900   1.00
O_3      0.97016    0.93556    1.27167   1.00
C5       0.93433    1.06473    1.13720   1.00
H2       0.93613    1.08331    1.16391   1.00
C5       0.89534    1.07202    1.11666   1.00
H2       0.95875    1.07275    1.11726   1.00
H2       0.87208    1.07430    1.13923   1.00
H2       0.88855    1.04560    1.09899   1.00
C5       0.89579    1.10877    1.09069   1.00
H2       0.90562    1.13430    1.10811   1.00
H2       0.86615    1.11493    1.07891   1.00
H2       0.91547    1.10492    1.06494   1.00
C5       0.91748    0.90388    1.24020   1.00
H2       0.91457    0.88012    1.26218   1.00
H2       0.94092    0.89488    1.21955   1.00
C5       0.87888    0.90999    1.21803   1.00
H2       0.86806    0.88162    1.20666   1.00
C5       1.10083    1.38227    1.07724   1.00
H2       1.10931    1.39755    1.04995   1.00
H2       1.12454    1.36099    1.08321   1.00
C5       1.09767    1.41219    1.11091   1.00
H2       1.12699    1.41890    1.12318   1.00
H2       1.07875    1.40040    1.13454   1.00
O_3      0.96721    1.23000    1.06269   1.00
C4       1.00008    1.27100    0.99956   1.00
C3c      1.03132    1.29243    1.01518   1.00
H1       1.05610    1.27725    1.02745   1.00
C3d      0.96832    1.29135    0.98321   1.00
C3       1.03092    1.33354    1.01577   1.00
O2       1.06446    1.35248    1.02712   1.00
C3       0.96750    1.33227    0.98443   1.00
H1       0.94190    1.34657    0.97279   1.00
C2       0.99865    1.35439    1.00050   1.00
C5       0.92605    1.22879    1.06114   1.00
H2       0.91459    1.19838    1.06248   1.00
H2       0.91494    1.24266    1.03385   1.00
C5       0.91063    1.25122    1.09614   1.00
H2       0.92296    1.28129    1.09539   1.00
H2       0.92160    1.23691    1.12321   1.00
C5       0.86589    1.25254    1.09595   1.00
H2       0.85338    1.22260    1.09642   1.00
H2       0.85494    1.26803    1.06960   1.00
H2       0.85514    1.26830    1.12220   1.00
C5       0.94080    1.26105    0.93073   1.00
C5       1.06292    1.36070    1.06753   1.00
H2       0.96598    1.24088    0.92721   1.00
H2       0.94560    1.28712    0.91182   1.00
H2       1.06102    1.33300    1.08454   1.00
H2       1.03708    1.37895    1.07560   1.00
H2       1.08540    1.44055    1.10044   1.00
H2       0.92981    1.19250    0.88292   1.00
H2       0.92229    1.23766    0.85613   1.00
C2       0.99759    1.14605    1.00089   1.00
C3       1.01607    1.16597    0.96993   1.00
O2       1.02470    1.14674    0.93563   1.00
C3       0.98188    1.16826    1.03196   1.00
H1       0.96845    1.15385    1.05658   1.00
C3a      1.01755    1.20713    0.97015   1.00
H1       1.02981    1.22202    0.94518   1.00
C3b      0.98229    1.20922    1.03149   1.00
C4       1.00014    1.22900    1.00040   1.00
O_3      0.93556    1.27167    0.97016   1.00
C5       1.06473    1.13720    0.93433   1.00
H2       1.08331    1.16391    0.93613   1.00
C5       1.07202    1.11666    0.89534   1.00
H2       1.07275    1.11726    0.95875   1.00
H2       1.07430    1.13923    0.87208   1.00
H2       1.04560    1.09899    0.88855   1.00
C5       1.10877    1.09069    0.89579   1.00
H2       1.13430    1.10811    0.90562   1.00
H2       1.11493    1.07891    0.86615   1.00
H2       1.10492    1.06494    0.91547   1.00
C5       0.90388    1.24020    0.91748   1.00
H2       0.88012    1.26218    0.91457   1.00
H2       0.89488    1.21955    0.94092   1.00
C5       0.90999    1.21803    0.87888   1.00
H2       0.88162    1.20666    0.86806   1.00
C5       0.61773    1.07724    0.89917   1.00
H2       0.60245    1.04995    0.89069   1.00
H2       0.63901    1.08321    0.87546   1.00
C5       0.58781    1.11091    0.90233   1.00
H2       0.58110    1.12318    0.87301   1.00
H2       0.59960    1.13454    0.92125   1.00
O_3      0.77000    1.06269    1.03279   1.00
C4       0.72900    0.99956    0.99992   1.00
C3c      0.70757    1.01518    0.96868   1.00
H1       0.72275    1.02745    0.94390   1.00
C3d      0.70865    0.98321    1.03168   1.00
C3       0.66646    1.01577    0.96908   1.00
O2       0.64752    1.02712    0.93554   1.00
C3       0.66773    0.98443    1.03250   1.00
H1       0.65343    0.97279    1.05810   1.00
C2       0.64561    1.00050    1.00135   1.00
C5       0.77121    1.06114    1.07395   1.00
H2       0.80162    1.06248    1.08541   1.00
H2       0.75734    1.03385    1.08506   1.00
C5       0.74878    1.09614    1.08937   1.00
H2       0.71871    1.09539    1.07704   1.00
H2       0.76309    1.12321    1.07840   1.00
C5       0.74746    1.09595    1.13411   1.00
H2       0.77740    1.09642    1.14662   1.00
H2       0.73197    1.06960    1.14506   1.00
H2       0.73170    1.12220    1.14486   1.00
C5       0.73895    0.93073    1.05920   1.00
C5       0.63930    1.06753    0.93708   1.00
H2       0.75912    0.92721    1.03402   1.00
H2       0.71288    0.91182    1.05440   1.00
H2       0.66700    1.08454    0.93898   1.00
H2       0.62105    1.07560    0.96292   1.00
H2       0.55945    1.10044    0.91460   1.00
H2       0.80750    0.88292    1.07019   1.00
H2       0.76234    0.85613    1.07771   1.00
C2       0.85395    1.00089    1.00241   1.00
C3       0.83403    0.96993    0.98393   1.00
O2       0.85326    0.93563    0.97530   1.00
C3       0.83174    1.03196    1.01812   1.00
H1       0.84615    1.05658    1.03155   1.00
C3a      0.79287    0.97015    0.98245   1.00
H1       0.77798    0.94518    0.97019   1.00
C3b      0.79078    1.03149    1.01771   1.00
C4       0.77100    1.00040    0.99986   1.00
O_3      0.72833    0.97016    1.06444   1.00
C5       0.86280    0.93433    0.93527   1.00
H2       0.83609    0.93613    0.91669   1.00
C5       0.88334    0.89534    0.92798   1.00
H2       0.88274    0.95875    0.92725   1.00
H2       0.86077    0.87208    0.92570   1.00
H2       0.90101    0.88855    0.95440   1.00
C5       0.90931    0.89579    0.89123   1.00
H2       0.89189    0.90562    0.86570   1.00
H2       0.92109    0.86615    0.88507   1.00
H2       0.93506    0.91547    0.89508   1.00
C5       0.75980    0.91748    1.09612   1.00
H2       0.73782    0.91457    1.11988   1.00
H2       0.78045    0.94092    1.10512   1.00
C5       0.78197    0.87888    1.09001   1.00
H2       0.79334    0.86806    1.11838   1.00
C5       1.38227    1.07724    1.10083   1.00
H2       1.39755    1.04995    1.10931   1.00
H2       1.36099    1.08321    1.12454   1.00
C5       1.41219    1.11091    1.09767   1.00
H2       1.41890    1.12318    1.12699   1.00
H2       1.40040    1.13454    1.07875   1.00
O_3      1.23000    1.06269    0.96721   1.00
C4       1.27100    0.99956    1.00008   1.00
C3c      1.29243    1.01518    1.03132   1.00
H1       1.27725    1.02745    1.05610   1.00
C3d      1.29135    0.98321    0.96832   1.00
C3       1.33354    1.01577    1.03092   1.00
O2       1.35248    1.02712    1.06446   1.00
C3       1.33227    0.98443    0.96750   1.00
H1       1.34657    0.97279    0.94190   1.00
C2       1.35439    1.00050    0.99865   1.00
C5       1.22879    1.06114    0.92605   1.00
H2       1.19838    1.06248    0.91459   1.00
H2       1.24266    1.03385    0.91494   1.00
C5       1.25122    1.09614    0.91063   1.00
H2       1.28129    1.09539    0.92296   1.00
H2       1.23691    1.12321    0.92160   1.00
C5       1.25254    1.09595    0.86589   1.00
H2       1.22260    1.09642    0.85338   1.00
H2       1.26803    1.06960    0.85494   1.00
H2       1.26830    1.12220    0.85514   1.00
C5       1.26105    0.93073    0.94080   1.00
C5       1.36070    1.06753    1.06292   1.00
H2       1.24088    0.92721    0.96598   1.00
H2       1.28712    0.91182    0.94560   1.00
H2       1.33300    1.08454    1.06102   1.00
H2       1.37895    1.07560    1.03708   1.00
H2       1.44055    1.10044    1.08540   1.00
H2       1.19250    0.88292    0.92981   1.00
H2       1.23766    0.85613    0.92229   1.00
C2       1.14605    1.00089    0.99759   1.00
C3       1.16597    0.96993    1.01607   1.00
O2       1.14674    0.93563    1.02470   1.00
C3       1.16826    1.03196    0.98188   1.00
H1       1.15385    1.05658    0.96845   1.00
C3a      1.20713    0.97015    1.01755   1.00
H1       1.22202    0.94518    1.02981   1.00
C3b      1.20922    1.03149    0.98229   1.00
C4       1.22900    1.00040    1.00014   1.00
O_3      1.27167    0.97016    0.93556   1.00
C5       1.13720    0.93433    1.06473   1.00
H2       1.16391    0.93613    1.08331   1.00
C5       1.11666    0.89534    1.07202   1.00
H2       1.11726    0.95875    1.07275   1.00
H2       1.13923    0.87208    1.07430   1.00
H2       1.09899    0.88855    1.04560   1.00
C5       1.09069    0.89579    1.10877   1.00
H2       1.10811    0.90562    1.13430   1.00
H2       1.07891    0.86615    1.11493   1.00
H2       1.06494    0.91547    1.10492   1.00
C5       1.24020    0.91748    0.90388   1.00
H2       1.26218    0.91457    0.88012   1.00
H2       1.21955    0.94092    0.89488   1.00
C5       1.21803    0.87888    0.90999   1.00
H2       1.20666    0.86806    0.88162   1.00
C5       0.89917    0.61773    1.07724   1.00
H2       0.89069    0.60245    1.04995   1.00
H2       0.87546    0.63901    1.08321   1.00
C5       0.90233    0.58781    1.11091   1.00
H2       0.87301    0.58110    1.12318   1.00
H2       0.92125    0.59960    1.13454   1.00
O_3      1.03279    0.77000    1.06269   1.00
C4       0.99992    0.72900    0.99956   1.00
C3c      0.96868    0.70757    1.01518   1.00
H1       0.94390    0.72275    1.02745   1.00
C3d      1.03168    0.70865    0.98321   1.00
C3       0.96908    0.66646    1.01577   1.00
O2       0.93554    0.64752    1.02712   1.00
C3       1.03250    0.66773    0.98443   1.00
H1       1.05810    0.65343    0.97279   1.00
C2       1.00135    0.64561    1.00050   1.00
C5       1.07395    0.77121    1.06114   1.00
H2       1.08541    0.80162    1.06248   1.00
H2       1.08506    0.75734    1.03385   1.00
C5       1.08937    0.74878    1.09614   1.00
H2       1.07704    0.71871    1.09539   1.00
H2       1.07840    0.76309    1.12321   1.00
C5       1.13411    0.74746    1.09595   1.00
H2       1.14662    0.77740    1.09642   1.00
H2       1.14506    0.73197    1.06960   1.00
H2       1.14486    0.73170    1.12220   1.00
C5       1.05920    0.73895    0.93073   1.00
C5       0.93708    0.63930    1.06753   1.00
H2       1.03402    0.75912    0.92721   1.00
H2       1.05440    0.71288    0.91182   1.00
H2       0.93898    0.66700    1.08454   1.00
H2       0.96292    0.62105    1.07560   1.00
H2       0.91460    0.55945    1.10044   1.00
H2       1.07019    0.80750    0.88292   1.00
H2       1.07771    0.76234    0.85613   1.00
C2       1.00241    0.85395    1.00089   1.00
C3       0.98393    0.83403    0.96993   1.00
O2       0.97530    0.85326    0.93563   1.00
C3       1.01812    0.83174    1.03196   1.00
H1       1.03155    0.84615    1.05658   1.00
C3a      0.98245    0.79287    0.97015   1.00
H1       0.97019    0.77798    0.94518   1.00
C3b      1.01771    0.79078    1.03149   1.00
C4       0.99986    0.77100    1.00040   1.00
O_3      1.06444    0.72833    0.97016   1.00
C5       0.93527    0.86280    0.93433   1.00
H2       0.91669    0.83609    0.93613   1.00
C5       0.92798    0.88334    0.89534   1.00
H2       0.92725    0.88274    0.95875   1.00
H2       0.92570    0.86077    0.87208   1.00
H2       0.95440    0.90101    0.88855   1.00
C5       0.89123    0.90931    0.89579   1.00
H2       0.86570    0.89189    0.90562   1.00
H2       0.88507    0.92109    0.86615   1.00
H2       0.89508    0.93506    0.91547   1.00
C5       1.09612    0.75980    0.91748   1.00
H2       1.11988    0.73782    0.91457   1.00
H2       1.10512    0.78045    0.94092   1.00
C5       1.09001    0.78197    0.87888   1.00
H2       1.11838    0.79334    0.86806   1.00
C5       1.07724    0.89917    0.61773   1.00
H2       1.04995    0.89069    0.60245   1.00
H2       1.08321    0.87546    0.63901   1.00
C5       1.11091    0.90233    0.58781   1.00
H2       1.12318    0.87301    0.58110   1.00
H2       1.13454    0.92125    0.59960   1.00
O_3      1.06269    1.03279    0.77000   1.00
C4       0.99956    0.99992    0.72900   1.00
C3c      1.01518    0.96868    0.70757   1.00
H1       1.02745    0.94390    0.72275   1.00
C3d      0.98321    1.03168    0.70865   1.00
C3       1.01577    0.96908    0.66646   1.00
O2       1.02712    0.93554    0.64752   1.00
C3       0.98443    1.03250    0.66773   1.00
H1       0.97279    1.05810    0.65343   1.00
C2       1.00050    1.00135    0.64561   1.00
C5       1.06114    1.07395    0.77121   1.00
H2       1.06248    1.08541    0.80162   1.00
H2       1.03385    1.08506    0.75734   1.00
C5       1.09614    1.08937    0.74878   1.00
H2       1.09539    1.07704    0.71871   1.00
H2       1.12321    1.07840    0.76309   1.00
C5       1.09595    1.13411    0.74746   1.00
H2       1.09642    1.14662    0.77740   1.00
H2       1.06960    1.14506    0.73197   1.00
H2       1.12220    1.14486    0.73170   1.00
C5       0.93073    1.05920    0.73895   1.00
C5       1.06753    0.93708    0.63930   1.00
H2       0.92721    1.03402    0.75912   1.00
H2       0.91182    1.05440    0.71288   1.00
H2       1.08454    0.93898    0.66700   1.00
H2       1.07560    0.96292    0.62105   1.00
H2       1.10044    0.91460    0.55945   1.00
H2       0.88292    1.07019    0.80750   1.00
H2       0.85613    1.07771    0.76234   1.00
C2       1.00089    1.00241    0.85395   1.00
C3       0.96993    0.98393    0.83403   1.00
O2       0.93563    0.97530    0.85326   1.00
C3       1.03196    1.01812    0.83174   1.00
H1       1.05658    1.03155    0.84615   1.00
C3a      0.97015    0.98245    0.79287   1.00
H1       0.94518    0.97019    0.77798   1.00
C3b      1.03149    1.01771    0.79078   1.00
C4       1.00040    0.99986    0.77100   1.00
O_3      0.97016    1.06444    0.72833   1.00
C5       0.93433    0.93527    0.86280   1.00
H2       0.93613    0.91669    0.83609   1.00
C5       0.89534    0.92798    0.88334   1.00
H2       0.95875    0.92725    0.88274   1.00
H2       0.87208    0.92570    0.86077   1.00
H2       0.88855    0.95440    0.90101   1.00
C5       0.89579    0.89123    0.90931   1.00
H2       0.90562    0.86570    0.89189   1.00
H2       0.86615    0.88507    0.92109   1.00
H2       0.91547    0.89508    0.93506   1.00
C5       0.91748    1.09612    0.75980   1.00
H2       0.91457    1.11988    0.73782   1.00
H2       0.94092    1.10512    0.78045   1.00
C5       0.87888    1.09001    0.78197   1.00
H2       0.86806    1.11838    0.79334   1.00
C5       0.57724    0.60083    1.38227   1.00
H2       0.54995    0.60931    1.39755   1.00
H2       0.58321    0.62454    1.36099   1.00
C5       0.61091    0.59767    1.41219   1.00
H2       0.62318    0.62699    1.41890   1.00
H2       0.63454    0.57875    1.40040   1.00
O_3      0.56269    0.46721    1.23000   1.00
C4       0.49956    0.50008    1.27100   1.00
C3c      0.51518    0.53132    1.29243   1.00
H1       0.52745    0.55610    1.27725   1.00
C3d      0.48321    0.46832    1.29135   1.00
C3       0.51577    0.53092    1.33354   1.00
O2       0.52712    0.56446    1.35248   1.00
C3       0.48443    0.46750    1.33227   1.00
H1       0.47279    0.44190    1.34657   1.00
C2       0.50050    0.49865    1.35439   1.00
C5       0.56114    0.42605    1.22879   1.00
H2       0.56248    0.41459    1.19838   1.00
H2       0.53385    0.41494    1.24266   1.00
C5       0.59614    0.41063    1.25122   1.00
H2       0.59539    0.42296    1.28129   1.00
H2       0.62321    0.42160    1.23691   1.00
C5       0.59595    0.36589    1.25254   1.00
H2       0.59642    0.35338    1.22260   1.00
H2       0.56960    0.35494    1.26803   1.00
H2       0.62220    0.35514    1.26830   1.00
C5       0.43073    0.44080    1.26105   1.00
C5       0.56753    0.56292    1.36070   1.00
H2       0.42721    0.46598    1.24088   1.00
H2       0.41182    0.44560    1.28712   1.00
H2       0.58454    0.56102    1.33300   1.00
H2       0.57560    0.53708    1.37895   1.00
H2       0.60044    0.58540    1.44055   1.00
H2       0.38292    0.42981    1.19250   1.00
H2       0.35613    0.42229    1.23766   1.00
C2       0.50089    0.49759    1.14605   1.00
C3       0.46993    0.51607    1.16597   1.00
O2       0.43563    0.52470    1.14674   1.00
C3       0.53196    0.48188    1.16826   1.00
H1       0.55658    0.46845    1.15385   1.00
C3a      0.47015    0.51755    1.20713   1.00
H1       0.44518    0.52981    1.22202   1.00
C3b      0.53149    0.48229    1.20922   1.00
C4       0.50040    0.50014    1.22900   1.00
O_3      0.47016    0.43556    1.27167   1.00
C5       0.43433    0.56473    1.13720   1.00
H2       0.43613    0.58331    1.16391   1.00
C5       0.39534    0.57202    1.11666   1.00
H2       0.45875    0.57275    1.11726   1.00
H2       0.37208    0.57430    1.13923   1.00
H2       0.38855    0.54560    1.09899   1.00
C5       0.39579    0.60877    1.09069   1.00
H2       0.40562    0.63430    1.10811   1.00
H2       0.36615    0.61493    1.07891   1.00
H2       0.41547    0.60492    1.06494   1.00
C5       0.41748    0.40388    1.24020   1.00
H2       0.41457    0.38012    1.26218   1.00
H2       0.44092    0.39488    1.21955   1.00
C5       0.37888    0.40999    1.21803   1.00
H2       0.36806    0.38162    1.20666   1.00
C5       0.60083    0.88227    1.07724   1.00
H2       0.60931    0.89755    1.04995   1.00
H2       0.62454    0.86099    1.08321   1.00
C5       0.59767    0.91219    1.11091   1.00
H2       0.62699    0.91890    1.12318   1.00
H2       0.57875    0.90040    1.13454   1.00
O_3      0.46721    0.73000    1.06269   1.00
C4       0.50008    0.77100    0.99956   1.00
C3c      0.53132    0.79243    1.01518   1.00
H1       0.55610    0.77725    1.02745   1.00
C3d      0.46832    0.79135    0.98321   1.00
C3       0.53092    0.83354    1.01577   1.00
O2       0.56446    0.85248    1.02712   1.00
C3       0.46750    0.83227    0.98443   1.00
H1       0.44190    0.84657    0.97279   1.00
C2       0.49865    0.85439    1.00050   1.00
C5       0.42605    0.72879    1.06114   1.00
H2       0.41459    0.69838    1.06248   1.00
H2       0.41494    0.74266    1.03385   1.00
C5       0.41063    0.75122    1.09614   1.00
H2       0.42296    0.78129    1.09539   1.00
H2       0.42160    0.73691    1.12321   1.00
C5       0.36589    0.75254    1.09595   1.00
H2       0.35338    0.72260    1.09642   1.00
H2       0.35494    0.76803    1.06960   1.00
H2       0.35514    0.76830    1.12220   1.00
C5       0.44080    0.76105    0.93073   1.00
C5       0.56292    0.86070    1.06753   1.00
H2       0.46598    0.74088    0.92721   1.00
H2       0.44560    0.78712    0.91182   1.00
H2       0.56102    0.83300    1.08454   1.00
H2       0.53708    0.87895    1.07560   1.00
H2       0.58540    0.94055    1.10044   1.00
H2       0.42981    0.69250    0.88292   1.00
H2       0.42229    0.73766    0.85613   1.00
C2       0.49759    0.64605    1.00089   1.00
C3       0.51607    0.66597    0.96993   1.00
O2       0.52470    0.64674    0.93563   1.00
C3       0.48188    0.66826    1.03196   1.00
H1       0.46845    0.65385    1.05658   1.00
C3a      0.51755    0.70713    0.97015   1.00
H1       0.52981    0.72202    0.94518   1.00
C3b      0.48229    0.70922    1.03149   1.00
C4       0.50014    0.72900    1.00040   1.00
O_3      0.43556    0.77167    0.97016   1.00
C5       0.56473    0.63720    0.93433   1.00
H2       0.58331    0.66391    0.93613   1.00
C5       0.57202    0.61666    0.89534   1.00
H2       0.57275    0.61726    0.95875   1.00
H2       0.57430    0.63923    0.87208   1.00
H2       0.54560    0.59899    0.88855   1.00
C5       0.60877    0.59069    0.89579   1.00
H2       0.63430    0.60811    0.90562   1.00
H2       0.61493    0.57891    0.86615   1.00
H2       0.60492    0.56494    0.91547   1.00
C5       0.40388    0.74020    0.91748   1.00
H2       0.38012    0.76218    0.91457   1.00
H2       0.39488    0.71955    0.94092   1.00
C5       0.40999    0.71803    0.87888   1.00
H2       0.38162    0.70666    0.86806   1.00
C5       0.11773    0.57724    0.89917   1.00
H2       0.10245    0.54995    0.89069   1.00
H2       0.13901    0.58321    0.87546   1.00
C5       0.08781    0.61091    0.90233   1.00
H2       0.08110    0.62318    0.87301   1.00
H2       0.09960    0.63454    0.92125   1.00
O_3      0.27000    0.56269    1.03279   1.00
C4       0.22900    0.49956    0.99992   1.00
C3c      0.20757    0.51518    0.96868   1.00
H1       0.22275    0.52745    0.94390   1.00
C3d      0.20865    0.48321    1.03168   1.00
C3       0.16646    0.51577    0.96908   1.00
O2       0.14752    0.52712    0.93554   1.00
C3       0.16773    0.48443    1.03250   1.00
H1       0.15343    0.47279    1.05810   1.00
C2       0.14561    0.50050    1.00135   1.00
C5       0.27121    0.56114    1.07395   1.00
H2       0.30162    0.56248    1.08541   1.00
H2       0.25734    0.53385    1.08506   1.00
C5       0.24878    0.59614    1.08937   1.00
H2       0.21871    0.59539    1.07704   1.00
H2       0.26309    0.62321    1.07840   1.00
C5       0.24746    0.59595    1.13411   1.00
H2       0.27740    0.59642    1.14662   1.00
H2       0.23197    0.56960    1.14506   1.00
H2       0.23170    0.62220    1.14486   1.00
C5       0.23895    0.43073    1.05920   1.00
C5       0.13930    0.56753    0.93708   1.00
H2       0.25912    0.42721    1.03402   1.00
H2       0.21288    0.41182    1.05440   1.00
H2       0.16700    0.58454    0.93898   1.00
H2       0.12105    0.57560    0.96292   1.00
H2       0.05945    0.60044    0.91460   1.00
H2       0.30750    0.38292    1.07019   1.00
H2       0.26234    0.35613    1.07771   1.00
C2       0.35395    0.50089    1.00241   1.00
C3       0.33403    0.46993    0.98393   1.00
O2       0.35326    0.43563    0.97530   1.00
C3       0.33174    0.53196    1.01812   1.00
H1       0.34615    0.55658    1.03155   1.00
C3a      0.29287    0.47015    0.98245   1.00
H1       0.27798    0.44518    0.97019   1.00
C3b      0.29078    0.53149    1.01771   1.00
C4       0.27100    0.50040    0.99986   1.00
O_3      0.22833    0.47016    1.06444   1.00
C5       0.36280    0.43433    0.93527   1.00
H2       0.33609    0.43613    0.91669   1.00
C5       0.38334    0.39534    0.92798   1.00
H2       0.38274    0.45875    0.92725   1.00
H2       0.36077    0.37208    0.92570   1.00
H2       0.40101    0.38855    0.95440   1.00
C5       0.40931    0.39579    0.89123   1.00
H2       0.39189    0.40562    0.86570   1.00
H2       0.42109    0.36615    0.88507   1.00
H2       0.43506    0.41547    0.89508   1.00
C5       0.25980    0.41748    1.09612   1.00
H2       0.23782    0.41457    1.11988   1.00
H2       0.28045    0.44092    1.10512   1.00
C5       0.28197    0.37888    1.09001   1.00
H2       0.29334    0.36806    1.11838   1.00
C5       0.88227    0.57724    1.10083   1.00
H2       0.89755    0.54995    1.10931   1.00
H2       0.86099    0.58321    1.12454   1.00
C5       0.91219    0.61091    1.09767   1.00
H2       0.91890    0.62318    1.12699   1.00
H2       0.90040    0.63454    1.07875   1.00
O_3      0.73000    0.56269    0.96721   1.00
C4       0.77100    0.49956    1.00008   1.00
C3c      0.79243    0.51518    1.03132   1.00
H1       0.77725    0.52745    1.05610   1.00
C3d      0.79135    0.48321    0.96832   1.00
C3       0.83354    0.51577    1.03092   1.00
O2       0.85248    0.52712    1.06446   1.00
C3       0.83227    0.48443    0.96750   1.00
H1       0.84657    0.47279    0.94190   1.00
C2       0.85439    0.50050    0.99865   1.00
C5       0.72879    0.56114    0.92605   1.00
H2       0.69838    0.56248    0.91459   1.00
H2       0.74266    0.53385    0.91494   1.00
C5       0.75122    0.59614    0.91063   1.00
H2       0.78129    0.59539    0.92296   1.00
H2       0.73691    0.62321    0.92160   1.00
C5       0.75254    0.59595    0.86589   1.00
H2       0.72260    0.59642    0.85338   1.00
H2       0.76803    0.56960    0.85494   1.00
H2       0.76830    0.62220    0.85514   1.00
C5       0.76105    0.43073    0.94080   1.00
C5       0.86070    0.56753    1.06292   1.00
H2       0.74088    0.42721    0.96598   1.00
H2       0.78712    0.41182    0.94560   1.00
H2       0.83300    0.58454    1.06102   1.00
H2       0.87895    0.57560    1.03708   1.00
H2       0.94055    0.60044    1.08540   1.00
H2       0.69250    0.38292    0.92981   1.00
H2       0.73766    0.35613    0.92229   1.00
C2       0.64605    0.50089    0.99759   1.00
C3       0.66597    0.46993    1.01607   1.00
O2       0.64674    0.43563    1.02470   1.00
C3       0.66826    0.53196    0.98188   1.00
H1       0.65385    0.55658    0.96845   1.00
C3a      0.70713    0.47015    1.01755   1.00
H1       0.72202    0.44518    1.02981   1.00
C3b      0.70922    0.53149    0.98229   1.00
C4       0.72900    0.50040    1.00014   1.00
O_3      0.77167    0.47016    0.93556   1.00
C5       0.63720    0.43433    1.06473   1.00
H2       0.66391    0.43613    1.08331   1.00
C5       0.61666    0.39534    1.07202   1.00
H2       0.61726    0.45875    1.07275   1.00
H2       0.63923    0.37208    1.07430   1.00
H2       0.59899    0.38855    1.04560   1.00
C5       0.59069    0.39579    1.10877   1.00
H2       0.60811    0.40562    1.13430   1.00
H2       0.57891    0.36615    1.11493   1.00
H2       0.56494    0.41547    1.10492   1.00
C5       0.74020    0.41748    0.90388   1.00
H2       0.76218    0.41457    0.88012   1.00
H2       0.71955    0.44092    0.89488   1.00
C5       0.71803    0.37888    0.90999   1.00
H2       0.70666    0.36806    0.88162   1.00
C5       0.39917    0.11773    1.07724   1.00
H2       0.39069    0.10245    1.04995   1.00
H2       0.37546    0.13901    1.08321   1.00
C5       0.40233    0.08781    1.11091   1.00
H2       0.37301    0.08110    1.12318   1.00
H2       0.42125    0.09960    1.13454   1.00
O_3      0.53279    0.27000    1.06269   1.00
C4       0.49992    0.22900    0.99956   1.00
C3c      0.46868    0.20757    1.01518   1.00
H1       0.44390    0.22275    1.02745   1.00
C3d      0.53168    0.20865    0.98321   1.00
C3       0.46908    0.16646    1.01577   1.00
O2       0.43554    0.14752    1.02712   1.00
C3       0.53250    0.16773    0.98443   1.00
H1       0.55810    0.15343    0.97279   1.00
C2       0.50135    0.14561    1.00050   1.00
C5       0.57395    0.27121    1.06114   1.00
H2       0.58541    0.30162    1.06248   1.00
H2       0.58506    0.25734    1.03385   1.00
C5       0.58937    0.24878    1.09614   1.00
H2       0.57704    0.21871    1.09539   1.00
H2       0.57840    0.26309    1.12321   1.00
C5       0.63411    0.24746    1.09595   1.00
H2       0.64662    0.27740    1.09642   1.00
H2       0.64506    0.23197    1.06960   1.00
H2       0.64486    0.23170    1.12220   1.00
C5       0.55920    0.23895    0.93073   1.00
C5       0.43708    0.13930    1.06753   1.00
H2       0.53402    0.25912    0.92721   1.00
H2       0.55440    0.21288    0.91182   1.00
H2       0.43898    0.16700    1.08454   1.00
H2       0.46292    0.12105    1.07560   1.00
H2       0.41460    0.05945    1.10044   1.00
H2       0.57019    0.30750    0.88292   1.00
H2       0.57771    0.26234    0.85613   1.00
C2       0.50241    0.35395    1.00089   1.00
C3       0.48393    0.33403    0.96993   1.00
O2       0.47530    0.35326    0.93563   1.00
C3       0.51812    0.33174    1.03196   1.00
H1       0.53155    0.34615    1.05658   1.00
C3a      0.48245    0.29287    0.97015   1.00
H1       0.47019    0.27798    0.94518   1.00
C3b      0.51771    0.29078    1.03149   1.00
C4       0.49986    0.27100    1.00040   1.00
O_3      0.56444    0.22833    0.97016   1.00
C5       0.43527    0.36280    0.93433   1.00
H2       0.41669    0.33609    0.93613   1.00
C5       0.42798    0.38334    0.89534   1.00
H2       0.42725    0.38274    0.95875   1.00
H2       0.42570    0.36077    0.87208   1.00
H2       0.45440    0.40101    0.88855   1.00
C5       0.39123    0.40931    0.89579   1.00
H2       0.36570    0.39189    0.90562   1.00
H2       0.38507    0.42109    0.86615   1.00
H2       0.39508    0.43506    0.91547   1.00
C5       0.59612    0.25980    0.91748   1.00
H2       0.61988    0.23782    0.91457   1.00
H2       0.60512    0.28045    0.94092   1.00
C5       0.59001    0.28197    0.87888   1.00
H2       0.61838    0.29334    0.86806   1.00
C5       0.57724    0.39917    0.61773   1.00
H2       0.54995    0.39069    0.60245   1.00
H2       0.58321    0.37546    0.63901   1.00
C5       0.61091    0.40233    0.58781   1.00
H2       0.62318    0.37301    0.58110   1.00
H2       0.63454    0.42125    0.59960   1.00
O_3      0.56269    0.53279    0.77000   1.00
C4       0.49956    0.49992    0.72900   1.00
C3c      0.51518    0.46868    0.70757   1.00
H1       0.52745    0.44390    0.72275   1.00
C3d      0.48321    0.53168    0.70865   1.00
C3       0.51577    0.46908    0.66646   1.00
O2       0.52712    0.43554    0.64752   1.00
C3       0.48443    0.53250    0.66773   1.00
H1       0.47279    0.55810    0.65343   1.00
C2       0.50050    0.50135    0.64561   1.00
C5       0.56114    0.57395    0.77121   1.00
H2       0.56248    0.58541    0.80162   1.00
H2       0.53385    0.58506    0.75734   1.00
C5       0.59614    0.58937    0.74878   1.00
H2       0.59539    0.57704    0.71871   1.00
H2       0.62321    0.57840    0.76309   1.00
C5       0.59595    0.63411    0.74746   1.00
H2       0.59642    0.64662    0.77740   1.00
H2       0.56960    0.64506    0.73197   1.00
H2       0.62220    0.64486    0.73170   1.00
C5       0.43073    0.55920    0.73895   1.00
C5       0.56753    0.43708    0.63930   1.00
H2       0.42721    0.53402    0.75912   1.00
H2       0.41182    0.55440    0.71288   1.00
H2       0.58454    0.43898    0.66700   1.00
H2       0.57560    0.46292    0.62105   1.00
H2       0.60044    0.41460    0.55945   1.00
H2       0.38292    0.57019    0.80750   1.00
H2       0.35613    0.57771    0.76234   1.00
C2       0.50089    0.50241    0.85395   1.00
C3       0.46993    0.48393    0.83403   1.00
O2       0.43563    0.47530    0.85326   1.00
C3       0.53196    0.51812    0.83174   1.00
H1       0.55658    0.53155    0.84615   1.00
C3a      0.47015    0.48245    0.79287   1.00
H1       0.44518    0.47019    0.77798   1.00
C3b      0.53149    0.51771    0.79078   1.00
C4       0.50040    0.49986    0.77100   1.00
O_3      0.47016    0.56444    0.72833   1.00
C5       0.43433    0.43527    0.86280   1.00
H2       0.43613    0.41669    0.83609   1.00
C5       0.39534    0.42798    0.88334   1.00
H2       0.45875    0.42725    0.88274   1.00
H2       0.37208    0.42570    0.86077   1.00
H2       0.38855    0.45440    0.90101   1.00
C5       0.39579    0.39123    0.90931   1.00
H2       0.40562    0.36570    0.89189   1.00
H2       0.36615    0.38507    0.92109   1.00
H2       0.41547    0.39508    0.93506   1.00
C5       0.41748    0.59612    0.75980   1.00
H2       0.41457    0.61988    0.73782   1.00
H2       0.44092    0.60512    0.78045   1.00
C5       0.37888    0.59001    0.78197   1.00
H2       0.36806    0.61838    0.79334   1.00
C5       0.57724    1.10083    0.88227   1.00
H2       0.54995    1.10931    0.89755   1.00
H2       0.58321    1.12454    0.86099   1.00
C5       0.61091    1.09767    0.91219   1.00
H2       0.62318    1.12699    0.91890   1.00
H2       0.63454    1.07875    0.90040   1.00
O_3      0.56269    0.96721    0.73000   1.00
C4       0.49956    1.00008    0.77100   1.00
C3c      0.51518    1.03132    0.79243   1.00
H1       0.52745    1.05610    0.77725   1.00
C3d      0.48321    0.96832    0.79135   1.00
C3       0.51577    1.03092    0.83354   1.00
O2       0.52712    1.06446    0.85248   1.00
C3       0.48443    0.96750    0.83227   1.00
H1       0.47279    0.94190    0.84657   1.00
C2       0.50050    0.99865    0.85439   1.00
C5       0.56114    0.92605    0.72879   1.00
H2       0.56248    0.91459    0.69838   1.00
H2       0.53385    0.91494    0.74266   1.00
C5       0.59614    0.91063    0.75122   1.00
H2       0.59539    0.92296    0.78129   1.00
H2       0.62321    0.92160    0.73691   1.00
C5       0.59595    0.86589    0.75254   1.00
H2       0.59642    0.85338    0.72260   1.00
H2       0.56960    0.85494    0.76803   1.00
H2       0.62220    0.85514    0.76830   1.00
C5       0.43073    0.94080    0.76105   1.00
C5       0.56753    1.06292    0.86070   1.00
H2       0.42721    0.96598    0.74088   1.00
H2       0.41182    0.94560    0.78712   1.00
H2       0.58454    1.06102    0.83300   1.00
H2       0.57560    1.03708    0.87895   1.00
H2       0.60044    1.08540    0.94055   1.00
H2       0.38292    0.92981    0.69250   1.00
H2       0.35613    0.92229    0.73766   1.00
C2       0.50089    0.99759    0.64605   1.00
C3       0.46993    1.01607    0.66597   1.00
O2       0.43563    1.02470    0.64674   1.00
C3       0.53196    0.98188    0.66826   1.00
H1       0.55658    0.96845    0.65385   1.00
C3a      0.47015    1.01755    0.70713   1.00
H1       0.44518    1.02981    0.72202   1.00
C3b      0.53149    0.98229    0.70922   1.00
C4       0.50040    1.00014    0.72900   1.00
O_3      0.47016    0.93556    0.77167   1.00
C5       0.43433    1.06473    0.63720   1.00
H2       0.43613    1.08331    0.66391   1.00
C5       0.39534    1.07202    0.61666   1.00
H2       0.45875    1.07275    0.61726   1.00
H2       0.37208    1.07430    0.63923   1.00
H2       0.38855    1.04560    0.59899   1.00
C5       0.39579    1.10877    0.59069   1.00
H2       0.40562    1.13430    0.60811   1.00
H2       0.36615    1.11493    0.57891   1.00
H2       0.41547    1.10492    0.56494   1.00
C5       0.41748    0.90388    0.74020   1.00
H2       0.41457    0.88012    0.76218   1.00
H2       0.44092    0.89488    0.71955   1.00
C5       0.37888    0.90999    0.71803   1.00
H2       0.36806    0.88162    0.70666   1.00
C5       0.60083    1.38227    0.57724   1.00
H2       0.60931    1.39755    0.54995   1.00
H2       0.62454    1.36099    0.58321   1.00
C5       0.59767    1.41219    0.61091   1.00
H2       0.62699    1.41890    0.62318   1.00
H2       0.57875    1.40040    0.63454   1.00
O_3      0.46721    1.23000    0.56269   1.00
C4       0.50008    1.27100    0.49956   1.00
C3c      0.53132    1.29243    0.51518   1.00
H1       0.55610    1.27725    0.52745   1.00
C3d      0.46832    1.29135    0.48321   1.00
C3       0.53092    1.33354    0.51577   1.00
O2       0.56446    1.35248    0.52712   1.00
C3       0.46750    1.33227    0.48443   1.00
H1       0.44190    1.34657    0.47279   1.00
C2       0.49865    1.35439    0.50050   1.00
C5       0.42605    1.22879    0.56114   1.00
H2       0.41459    1.19838    0.56248   1.00
H2       0.41494    1.24266    0.53385   1.00
C5       0.41063    1.25122    0.59614   1.00
H2       0.42296    1.28129    0.59539   1.00
H2       0.42160    1.23691    0.62321   1.00
C5       0.36589    1.25254    0.59595   1.00
H2       0.35338    1.22260    0.59642   1.00
H2       0.35494    1.26803    0.56960   1.00
H2       0.35514    1.26830    0.62220   1.00
C5       0.44080    1.26105    0.43073   1.00
C5       0.56292    1.36070    0.56753   1.00
H2       0.46598    1.24088    0.42721   1.00
H2       0.44560    1.28712    0.41182   1.00
H2       0.56102    1.33300    0.58454   1.00
H2       0.53708    1.37895    0.57560   1.00
H2       0.58540    1.44055    0.60044   1.00
H2       0.42981    1.19250    0.38292   1.00
H2       0.42229    1.23766    0.35613   1.00
C2       0.49759    1.14605    0.50089   1.00
C3       0.51607    1.16597    0.46993   1.00
O2       0.52470    1.14674    0.43563   1.00
C3       0.48188    1.16826    0.53196   1.00
H1       0.46845    1.15385    0.55658   1.00
C3a      0.51755    1.20713    0.47015   1.00
H1       0.52981    1.22202    0.44518   1.00
C3b      0.48229    1.20922    0.53149   1.00
C4       0.50014    1.22900    0.50040   1.00
O_3      0.43556    1.27167    0.47016   1.00
C5       0.56473    1.13720    0.43433   1.00
H2       0.58331    1.16391    0.43613   1.00
C5       0.57202    1.11666    0.39534   1.00
H2       0.57275    1.11726    0.45875   1.00
H2       0.57430    1.13923    0.37208   1.00
H2       0.54560    1.09899    0.38855   1.00
C5       0.60877    1.09069    0.39579   1.00
H2       0.63430    1.10811    0.40562   1.00
H2       0.61493    1.07891    0.36615   1.00
H2       0.60492    1.06494    0.41547   1.00
C5       0.40388    1.24020    0.41748   1.00
H2       0.38012    1.26218    0.41457   1.00
H2       0.39488    1.21955    0.44092   1.00
C5       0.40999    1.21803    0.37888   1.00
H2       0.38162    1.20666    0.36806   1.00
C5       0.11773    1.07724    0.39917   1.00
H2       0.10245    1.04995    0.39069   1.00
H2       0.13901    1.08321    0.37546   1.00
C5       0.08781    1.11091    0.40233   1.00
H2       0.08110    1.12318    0.37301   1.00
H2       0.09960    1.13454    0.42125   1.00
O_3      0.27000    1.06269    0.53279   1.00
C4       0.22900    0.99956    0.49992   1.00
C3c      0.20757    1.01518    0.46868   1.00
H1       0.22275    1.02745    0.44390   1.00
C3d      0.20865    0.98321    0.53168   1.00
C3       0.16646    1.01577    0.46908   1.00
O2       0.14752    1.02712    0.43554   1.00
C3       0.16773    0.98443    0.53250   1.00
H1       0.15343    0.97279    0.55810   1.00
C2       0.14561    1.00050    0.50135   1.00
C5       0.27121    1.06114    0.57395   1.00
H2       0.30162    1.06248    0.58541   1.00
H2       0.25734    1.03385    0.58506   1.00
C5       0.24878    1.09614    0.58937   1.00
H2       0.21871    1.09539    0.57704   1.00
H2       0.26309    1.12321    0.57840   1.00
C5       0.24746    1.09595    0.63411   1.00
H2       0.27740    1.09642    0.64662   1.00
H2       0.23197    1.06960    0.64506   1.00
H2       0.23170    1.12220    0.64486   1.00
C5       0.23895    0.93073    0.55920   1.00
C5       0.13930    1.06753    0.43708   1.00
H2       0.25912    0.92721    0.53402   1.00
H2       0.21288    0.91182    0.55440   1.00
H2       0.16700    1.08454    0.43898   1.00
H2       0.12105    1.07560    0.46292   1.00
H2       0.05945    1.10044    0.41460   1.00
H2       0.30750    0.88292    0.57019   1.00
H2       0.26234    0.85613    0.57771   1.00
C2       0.35395    1.00089    0.50241   1.00
C3       0.33403    0.96993    0.48393   1.00
O2       0.35326    0.93563    0.47530   1.00
C3       0.33174    1.03196    0.51812   1.00
H1       0.34615    1.05658    0.53155   1.00
C3a      0.29287    0.97015    0.48245   1.00
H1       0.27798    0.94518    0.47019   1.00
C3b      0.29078    1.03149    0.51771   1.00
C4       0.27100    1.00040    0.49986   1.00
O_3      0.22833    0.97016    0.56444   1.00
C5       0.36280    0.93433    0.43527   1.00
H2       0.33609    0.93613    0.41669   1.00
C5       0.38334    0.89534    0.42798   1.00
H2       0.38274    0.95875    0.42725   1.00
H2       0.36077    0.87208    0.42570   1.00
H2       0.40101    0.88855    0.45440   1.00
C5       0.40931    0.89579    0.39123   1.00
H2       0.39189    0.90562    0.36570   1.00
H2       0.42109    0.86615    0.38507   1.00
H2       0.43506    0.91547    0.39508   1.00
C5       0.25980    0.91748    0.59612   1.00
H2       0.23782    0.91457    0.61988   1.00
H2       0.28045    0.94092    0.60512   1.00
C5       0.28197    0.87888    0.59001   1.00
H2       0.29334    0.86806    0.61838   1.00
C5       0.88227    1.07724    0.60083   1.00
H2       0.89755    1.04995    0.60931   1.00
H2       0.86099    1.08321    0.62454   1.00
C5       0.91219    1.11091    0.59767   1.00
H2       0.91890    1.12318    0.62699   1.00
H2       0.90040    1.13454    0.57875   1.00
O_3      0.73000    1.06269    0.46721   1.00
C4       0.77100    0.99956    0.50008   1.00
C3c      0.79243    1.01518    0.53132   1.00
H1       0.77725    1.02745    0.55610   1.00
C3d      0.79135    0.98321    0.46832   1.00
C3       0.83354    1.01577    0.53092   1.00
O2       0.85248    1.02712    0.56446   1.00
C3       0.83227    0.98443    0.46750   1.00
H1       0.84657    0.97279    0.44190   1.00
C2       0.85439    1.00050    0.49865   1.00
C5       0.72879    1.06114    0.42605   1.00
H2       0.69838    1.06248    0.41459   1.00
H2       0.74266    1.03385    0.41494   1.00
C5       0.75122    1.09614    0.41063   1.00
H2       0.78129    1.09539    0.42296   1.00
H2       0.73691    1.12321    0.42160   1.00
C5       0.75254    1.09595    0.36589   1.00
H2       0.72260    1.09642    0.35338   1.00
H2       0.76803    1.06960    0.35494   1.00
H2       0.76830    1.12220    0.35514   1.00
C5       0.76105    0.93073    0.44080   1.00
C5       0.86070    1.06753    0.56292   1.00
H2       0.74088    0.92721    0.46598   1.00
H2       0.78712    0.91182    0.44560   1.00
H2       0.83300    1.08454    0.56102   1.00
H2       0.87895    1.07560    0.53708   1.00
H2       0.94055    1.10044    0.58540   1.00
H2       0.69250    0.88292    0.42981   1.00
H2       0.73766    0.85613    0.42229   1.00
C2       0.64605    1.00089    0.49759   1.00
C3       0.66597    0.96993    0.51607   1.00
O2       0.64674    0.93563    0.52470   1.00
C3       0.66826    1.03196    0.48188   1.00
H1       0.65385    1.05658    0.46845   1.00
C3a      0.70713    0.97015    0.51755   1.00
H1       0.72202    0.94518    0.52981   1.00
C3b      0.70922    1.03149    0.48229   1.00
C4       0.72900    1.00040    0.50014   1.00
O_3      0.77167    0.97016    0.43556   1.00
C5       0.63720    0.93433    0.56473   1.00
H2       0.66391    0.93613    0.58331   1.00
C5       0.61666    0.89534    0.57202   1.00
H2       0.61726    0.95875    0.57275   1.00
H2       0.63923    0.87208    0.57430   1.00
H2       0.59899    0.88855    0.54560   1.00
C5       0.59069    0.89579    0.60877   1.00
H2       0.60811    0.90562    0.63430   1.00
H2       0.57891    0.86615    0.61493   1.00
H2       0.56494    0.91547    0.60492   1.00
C5       0.74020    0.91748    0.40388   1.00
H2       0.76218    0.91457    0.38012   1.00
H2       0.71955    0.94092    0.39488   1.00
C5       0.71803    0.87888    0.40999   1.00
H2       0.70666    0.86806    0.38162   1.00
C5       0.39917    0.61773    0.57724   1.00
H2       0.39069    0.60245    0.54995   1.00
H2       0.37546    0.63901    0.58321   1.00
C5       0.40233    0.58781    0.61091   1.00
H2       0.37301    0.58110    0.62318   1.00
H2       0.42125    0.59960    0.63454   1.00
O_3      0.53279    0.77000    0.56269   1.00
C4       0.49992    0.72900    0.49956   1.00
C3c      0.46868    0.70757    0.51518   1.00
H1       0.44390    0.72275    0.52745   1.00
C3d      0.53168    0.70865    0.48321   1.00
C3       0.46908    0.66646    0.51577   1.00
O2       0.43554    0.64752    0.52712   1.00
C3       0.53250    0.66773    0.48443   1.00
H1       0.55810    0.65343    0.47279   1.00
C2       0.50135    0.64561    0.50050   1.00
C5       0.57395    0.77121    0.56114   1.00
H2       0.58541    0.80162    0.56248   1.00
H2       0.58506    0.75734    0.53385   1.00
C5       0.58937    0.74878    0.59614   1.00
H2       0.57704    0.71871    0.59539   1.00
H2       0.57840    0.76309    0.62321   1.00
C5       0.63411    0.74746    0.59595   1.00
H2       0.64662    0.77740    0.59642   1.00
H2       0.64506    0.73197    0.56960   1.00
H2       0.64486    0.73170    0.62220   1.00
C5       0.55920    0.73895    0.43073   1.00
C5       0.43708    0.63930    0.56753   1.00
H2       0.53402    0.75912    0.42721   1.00
H2       0.55440    0.71288    0.41182   1.00
H2       0.43898    0.66700    0.58454   1.00
H2       0.46292    0.62105    0.57560   1.00
H2       0.41460    0.55945    0.60044   1.00
H2       0.57019    0.80750    0.38292   1.00
H2       0.57771    0.76234    0.35613   1.00
C2       0.50241    0.85395    0.50089   1.00
C3       0.48393    0.83403    0.46993   1.00
O2       0.47530    0.85326    0.43563   1.00
C3       0.51812    0.83174    0.53196   1.00
H1       0.53155    0.84615    0.55658   1.00
C3a      0.48245    0.79287    0.47015   1.00
H1       0.47019    0.77798    0.44518   1.00
C3b      0.51771    0.79078    0.53149   1.00
C4       0.49986    0.77100    0.50040   1.00
O_3      0.56444    0.72833    0.47016   1.00
C5       0.43527    0.86280    0.43433   1.00
H2       0.41669    0.83609    0.43613   1.00
C5       0.42798    0.88334    0.39534   1.00
H2       0.42725    0.88274    0.45875   1.00
H2       0.42570    0.86077    0.37208   1.00
H2       0.45440    0.90101    0.38855   1.00
C5       0.39123    0.90931    0.39579   1.00
H2       0.36570    0.89189    0.40562   1.00
H2       0.38507    0.92109    0.36615   1.00
H2       0.39508    0.93506    0.41547   1.00
C5       0.59612    0.75980    0.41748   1.00
H2       0.61988    0.73782    0.41457   1.00
H2       0.60512    0.78045    0.44092   1.00
C5       0.59001    0.78197    0.37888   1.00
H2       0.61838    0.79334    0.36806   1.00
C5       0.57724    0.89917    0.11773   1.00
H2       0.54995    0.89069    0.10245   1.00
H2       0.58321    0.87546    0.13901   1.00
C5       0.61091    0.90233    0.08781   1.00
H2       0.62318    0.87301    0.08110   1.00
H2       0.63454    0.92125    0.09960   1.00
O_3      0.56269    1.03279    0.27000   1.00
C4       0.49956    0.99992    0.22900   1.00
C3c      0.51518    0.96868    0.20757   1.00
H1       0.52745    0.94390    0.22275   1.00
C3d      0.48321    1.03168    0.20865   1.00
C3       0.51577    0.96908    0.16646   1.00
O2       0.52712    0.93554    0.14752   1.00
C3       0.48443    1.03250    0.16773   1.00
H1       0.47279    1.05810    0.15343   1.00
C2       0.50050    1.00135    0.14561   1.00
C5       0.56114    1.07395    0.27121   1.00
H2       0.56248    1.08541    0.30162   1.00
H2       0.53385    1.08506    0.25734   1.00
C5       0.59614    1.08937    0.24878   1.00
H2       0.59539    1.07704    0.21871   1.00
H2       0.62321    1.07840    0.26309   1.00
C5       0.59595    1.13411    0.24746   1.00
H2       0.59642    1.14662    0.27740   1.00
H2       0.56960    1.14506    0.23197   1.00
H2       0.62220    1.14486    0.23170   1.00
C5       0.43073    1.05920    0.23895   1.00
C5       0.56753    0.93708    0.13930   1.00
H2       0.42721    1.03402    0.25912   1.00
H2       0.41182    1.05440    0.21288   1.00
H2       0.58454    0.93898    0.16700   1.00
H2       0.57560    0.96292    0.12105   1.00
H2       0.60044    0.91460    0.05945   1.00
H2       0.38292    1.07019    0.30750   1.00
H2       0.35613    1.07771    0.26234   1.00
C2       0.50089    1.00241    0.35395   1.00
C3       0.46993    0.98393    0.33403   1.00
O2       0.43563    0.97530    0.35326   1.00
C3       0.53196    1.01812    0.33174   1.00
H1       0.55658    1.03155    0.34615   1.00
C3a      0.47015    0.98245    0.29287   1.00
H1       0.44518    0.97019    0.27798   1.00
C3b      0.53149    1.01771    0.29078   1.00
C4       0.50040    0.99986    0.27100   1.00
O_3      0.47016    1.06444    0.22833   1.00
C5       0.43433    0.93527    0.36280   1.00
H2       0.43613    0.91669    0.33609   1.00
C5       0.39534    0.92798    0.38334   1.00
H2       0.45875    0.92725    0.38274   1.00
H2       0.37208    0.92570    0.36077   1.00
H2       0.38855    0.95440    0.40101   1.00
C5       0.39579    0.89123    0.40931   1.00
H2       0.40562    0.86570    0.39189   1.00
H2       0.36615    0.88507    0.42109   1.00
H2       0.41547    0.89508    0.43506   1.00
C5       0.41748    1.09612    0.25980   1.00
H2       0.41457    1.11988    0.23782   1.00
H2       0.44092    1.10512    0.28045   1.00
C5       0.37888    1.09001    0.28197   1.00
H2       0.36806    1.11838    0.29334   1.00
C5       1.07724    0.60083    0.88227   1.00
H2       1.04995    0.60931    0.89755   1.00
H2       1.08321    0.62454    0.86099   1.00
C5       1.11091    0.59767    0.91219   1.00
H2       1.12318    0.62699    0.91890   1.00
H2       1.13454    0.57875    0.90040   1.00
O_3      1.06269    0.46721    0.73000   1.00
C4       0.99956    0.50008    0.77100   1.00
C3c      1.01518    0.53132    0.79243   1.00
H1       1.02745    0.55610    0.77725   1.00
C3d      0.98321    0.46832    0.79135   1.00
C3       1.01577    0.53092    0.83354   1.00
O2       1.02712    0.56446    0.85248   1.00
C3       0.98443    0.46750    0.83227   1.00
H1       0.97279    0.44190    0.84657   1.00
C2       1.00050    0.49865    0.85439   1.00
C5       1.06114    0.42605    0.72879   1.00
H2       1.06248    0.41459    0.69838   1.00
H2       1.03385    0.41494    0.74266   1.00
C5       1.09614    0.41063    0.75122   1.00
H2       1.09539    0.42296    0.78129   1.00
H2       1.12321    0.42160    0.73691   1.00
C5       1.09595    0.36589    0.75254   1.00
H2       1.09642    0.35338    0.72260   1.00
H2       1.06960    0.35494    0.76803   1.00
H2       1.12220    0.35514    0.76830   1.00
C5       0.93073    0.44080    0.76105   1.00
C5       1.06753    0.56292    0.86070   1.00
H2       0.92721    0.46598    0.74088   1.00
H2       0.91182    0.44560    0.78712   1.00
H2       1.08454    0.56102    0.83300   1.00
H2       1.07560    0.53708    0.87895   1.00
H2       1.10044    0.58540    0.94055   1.00
H2       0.88292    0.42981    0.69250   1.00
H2       0.85613    0.42229    0.73766   1.00
C2       1.00089    0.49759    0.64605   1.00
C3       0.96993    0.51607    0.66597   1.00
O2       0.93563    0.52470    0.64674   1.00
C3       1.03196    0.48188    0.66826   1.00
H1       1.05658    0.46845    0.65385   1.00
C3a      0.97015    0.51755    0.70713   1.00
H1       0.94518    0.52981    0.72202   1.00
C3b      1.03149    0.48229    0.70922   1.00
C4       1.00040    0.50014    0.72900   1.00
O_3      0.97016    0.43556    0.77167   1.00
C5       0.93433    0.56473    0.63720   1.00
H2       0.93613    0.58331    0.66391   1.00
C5       0.89534    0.57202    0.61666   1.00
H2       0.95875    0.57275    0.61726   1.00
H2       0.87208    0.57430    0.63923   1.00
H2       0.88855    0.54560    0.59899   1.00
C5       0.89579    0.60877    0.59069   1.00
H2       0.90562    0.63430    0.60811   1.00
H2       0.86615    0.61493    0.57891   1.00
H2       0.91547    0.60492    0.56494   1.00
C5       0.91748    0.40388    0.74020   1.00
H2       0.91457    0.38012    0.76218   1.00
H2       0.94092    0.39488    0.71955   1.00
C5       0.87888    0.40999    0.71803   1.00
H2       0.86806    0.38162    0.70666   1.00
C5       1.10083    0.88227    0.57724   1.00
H2       1.10931    0.89755    0.54995   1.00
H2       1.12454    0.86099    0.58321   1.00
C5       1.09767    0.91219    0.61091   1.00
H2       1.12699    0.91890    0.62318   1.00
H2       1.07875    0.90040    0.63454   1.00
O_3      0.96721    0.73000    0.56269   1.00
C4       1.00008    0.77100    0.49956   1.00
C3c      1.03132    0.79243    0.51518   1.00
H1       1.05610    0.77725    0.52745   1.00
C3d      0.96832    0.79135    0.48321   1.00
C3       1.03092    0.83354    0.51577   1.00
O2       1.06446    0.85248    0.52712   1.00
C3       0.96750    0.83227    0.48443   1.00
H1       0.94190    0.84657    0.47279   1.00
C2       0.99865    0.85439    0.50050   1.00
C5       0.92605    0.72879    0.56114   1.00
H2       0.91459    0.69838    0.56248   1.00
H2       0.91494    0.74266    0.53385   1.00
C5       0.91063    0.75122    0.59614   1.00
H2       0.92296    0.78129    0.59539   1.00
H2       0.92160    0.73691    0.62321   1.00
C5       0.86589    0.75254    0.59595   1.00
H2       0.85338    0.72260    0.59642   1.00
H2       0.85494    0.76803    0.56960   1.00
H2       0.85514    0.76830    0.62220   1.00
C5       0.94080    0.76105    0.43073   1.00
C5       1.06292    0.86070    0.56753   1.00
H2       0.96598    0.74088    0.42721   1.00
H2       0.94560    0.78712    0.41182   1.00
H2       1.06102    0.83300    0.58454   1.00
H2       1.03708    0.87895    0.57560   1.00
H2       1.08540    0.94055    0.60044   1.00
H2       0.92981    0.69250    0.38292   1.00
H2       0.92229    0.73766    0.35613   1.00
C2       0.99759    0.64605    0.50089   1.00
C3       1.01607    0.66597    0.46993   1.00
O2       1.02470    0.64674    0.43563   1.00
C3       0.98188    0.66826    0.53196   1.00
H1       0.96845    0.65385    0.55658   1.00
C3a      1.01755    0.70713    0.47015   1.00
H1       1.02981    0.72202    0.44518   1.00
C3b      0.98229    0.70922    0.53149   1.00
C4       1.00014    0.72900    0.50040   1.00
O_3      0.93556    0.77167    0.47016   1.00
C5       1.06473    0.63720    0.43433   1.00
H2       1.08331    0.66391    0.43613   1.00
C5       1.07202    0.61666    0.39534   1.00
H2       1.07275    0.61726    0.45875   1.00
H2       1.07430    0.63923    0.37208   1.00
H2       1.04560    0.59899    0.38855   1.00
C5       1.10877    0.59069    0.39579   1.00
H2       1.13430    0.60811    0.40562   1.00
H2       1.11493    0.57891    0.36615   1.00
H2       1.10492    0.56494    0.41547   1.00
C5       0.90388    0.74020    0.41748   1.00
H2       0.88012    0.76218    0.41457   1.00
H2       0.89488    0.71955    0.44092   1.00
C5       0.90999    0.71803    0.37888   1.00
H2       0.88162    0.70666    0.36806   1.00
C5       0.61773    0.57724    0.39917   1.00
H2       0.60245    0.54995    0.39069   1.00
H2       0.63901    0.58321    0.37546   1.00
C5       0.58781    0.61091    0.40233   1.00
H2       0.58110    0.62318    0.37301   1.00
H2       0.59960    0.63454    0.42125   1.00
O_3      0.77000    0.56269    0.53279   1.00
C4       0.72900    0.49956    0.49992   1.00
C3c      0.70757    0.51518    0.46868   1.00
H1       0.72275    0.52745    0.44390   1.00
C3d      0.70865    0.48321    0.53168   1.00
C3       0.66646    0.51577    0.46908   1.00
O2       0.64752    0.52712    0.43554   1.00
C3       0.66773    0.48443    0.53250   1.00
H1       0.65343    0.47279    0.55810   1.00
C2       0.64561    0.50050    0.50135   1.00
C5       0.77121    0.56114    0.57395   1.00
H2       0.80162    0.56248    0.58541   1.00
H2       0.75734    0.53385    0.58506   1.00
C5       0.74878    0.59614    0.58937   1.00
H2       0.71871    0.59539    0.57704   1.00
H2       0.76309    0.62321    0.57840   1.00
C5       0.74746    0.59595    0.63411   1.00
H2       0.77740    0.59642    0.64662   1.00
H2       0.73197    0.56960    0.64506   1.00
H2       0.73170    0.62220    0.64486   1.00
C5       0.73895    0.43073    0.55920   1.00
C5       0.63930    0.56753    0.43708   1.00
H2       0.75912    0.42721    0.53402   1.00
H2       0.71288    0.41182    0.55440   1.00
H2       0.66700    0.58454    0.43898   1.00
H2       0.62105    0.57560    0.46292   1.00
H2       0.55945    0.60044    0.41460   1.00
H2       0.80750    0.38292    0.57019   1.00
H2       0.76234    0.35613    0.57771   1.00
C2       0.85395    0.50089    0.50241   1.00
C3       0.83403    0.46993    0.48393   1.00
O2       0.85326    0.43563    0.47530   1.00
C3       0.83174    0.53196    0.51812   1.00
H1       0.84615    0.55658    0.53155   1.00
C3a      0.79287    0.47015    0.48245   1.00
H1       0.77798    0.44518    0.47019   1.00
C3b      0.79078    0.53149    0.51771   1.00
C4       0.77100    0.50040    0.49986   1.00
O_3      0.72833    0.47016    0.56444   1.00
C5       0.86280    0.43433    0.43527   1.00
H2       0.83609    0.43613    0.41669   1.00
C5       0.88334    0.39534    0.42798   1.00
H2       0.88274    0.45875    0.42725   1.00
H2       0.86077    0.37208    0.42570   1.00
H2       0.90101    0.38855    0.45440   1.00
C5       0.90931    0.39579    0.39123   1.00
H2       0.89189    0.40562    0.36570   1.00
H2       0.92109    0.36615    0.38507   1.00
H2       0.93506    0.41547    0.39508   1.00
C5       0.75980    0.41748    0.59612   1.00
H2       0.73782    0.41457    0.61988   1.00
H2       0.78045    0.44092    0.60512   1.00
C5       0.78197    0.37888    0.59001   1.00
H2       0.79334    0.36806    0.61838   1.00
C5       1.38227    0.57724    0.60083   1.00
H2       1.39755    0.54995    0.60931   1.00
H2       1.36099    0.58321    0.62454   1.00
C5       1.41219    0.61091    0.59767   1.00
H2       1.41890    0.62318    0.62699   1.00
H2       1.40040    0.63454    0.57875   1.00
O_3      1.23000    0.56269    0.46721   1.00
C4       1.27100    0.49956    0.50008   1.00
C3c      1.29243    0.51518    0.53132   1.00
H1       1.27725    0.52745    0.55610   1.00
C3d      1.29135    0.48321    0.46832   1.00
C3       1.33354    0.51577    0.53092   1.00
O2       1.35248    0.52712    0.56446   1.00
C3       1.33227    0.48443    0.46750   1.00
H1       1.34657    0.47279    0.44190   1.00
C2       1.35439    0.50050    0.49865   1.00
C5       1.22879    0.56114    0.42605   1.00
H2       1.19838    0.56248    0.41459   1.00
H2       1.24266    0.53385    0.41494   1.00
C5       1.25122    0.59614    0.41063   1.00
H2       1.28129    0.59539    0.42296   1.00
H2       1.23691    0.62321    0.42160   1.00
C5       1.25254    0.59595    0.36589   1.00
H2       1.22260    0.59642    0.35338   1.00
H2       1.26803    0.56960    0.35494   1.00
H2       1.26830    0.62220    0.35514   1.00
C5       1.26105    0.43073    0.44080   1.00
C5       1.36070    0.56753    0.56292   1.00
H2       1.24088    0.42721    0.46598   1.00
H2       1.28712    0.41182    0.44560   1.00
H2       1.33300    0.58454    0.56102   1.00
H2       1.37895    0.57560    0.53708   1.00
H2       1.44055    0.60044    0.58540   1.00
H2       1.19250    0.38292    0.42981   1.00
H2       1.23766    0.35613    0.42229   1.00
C2       1.14605    0.50089    0.49759   1.00
C3       1.16597    0.46993    0.51607   1.00
O2       1.14674    0.43563    0.52470   1.00
C3       1.16826    0.53196    0.48188   1.00
H1       1.15385    0.55658    0.46845   1.00
C3a      1.20713    0.47015    0.51755   1.00
H1       1.22202    0.44518    0.52981   1.00
C3b      1.20922    0.53149    0.48229   1.00
C4       1.22900    0.50040    0.50014   1.00
O_3      1.27167    0.47016    0.43556   1.00
C5       1.13720    0.43433    0.56473   1.00
H2       1.16391    0.43613    0.58331   1.00
C5       1.11666    0.39534    0.57202   1.00
H2       1.11726    0.45875    0.57275   1.00
H2       1.13923    0.37208    0.57430   1.00
H2       1.09899    0.38855    0.54560   1.00
C5       1.09069    0.39579    0.60877   1.00
H2       1.10811    0.40562    0.63430   1.00
H2       1.07891    0.36615    0.61493   1.00
H2       1.06494    0.41547    0.60492   1.00
C5       1.24020    0.41748    0.40388   1.00
H2       1.26218    0.41457    0.38012   1.00
H2       1.21955    0.44092    0.39488   1.00
C5       1.21803    0.37888    0.40999   1.00
H2       1.20666    0.36806    0.38162   1.00
C5       0.89917    0.11773    0.57724   1.00
H2       0.89069    0.10245    0.54995   1.00
H2       0.87546    0.13901    0.58321   1.00
C5       0.90233    0.08781    0.61091   1.00
H2       0.87301    0.08110    0.62318   1.00
H2       0.92125    0.09960    0.63454   1.00
O_3      1.03279    0.27000    0.56269   1.00
C4       0.99992    0.22900    0.49956   1.00
C3c      0.96868    0.20757    0.51518   1.00
H1       0.94390    0.22275    0.52745   1.00
C3d      1.03168    0.20865    0.48321   1.00
C3       0.96908    0.16646    0.51577   1.00
O2       0.93554    0.14752    0.52712   1.00
C3       1.03250    0.16773    0.48443   1.00
H1       1.05810    0.15343    0.47279   1.00
C2       1.00135    0.14561    0.50050   1.00
C5       1.07395    0.27121    0.56114   1.00
H2       1.08541    0.30162    0.56248   1.00
H2       1.08506    0.25734    0.53385   1.00
C5       1.08937    0.24878    0.59614   1.00
H2       1.07704    0.21871    0.59539   1.00
H2       1.07840    0.26309    0.62321   1.00
C5       1.13411    0.24746    0.59595   1.00
H2       1.14662    0.27740    0.59642   1.00
H2       1.14506    0.23197    0.56960   1.00
H2       1.14486    0.23170    0.62220   1.00
C5       1.05920    0.23895    0.43073   1.00
C5       0.93708    0.13930    0.56753   1.00
H2       1.03402    0.25912    0.42721   1.00
H2       1.05440    0.21288    0.41182   1.00
H2       0.93898    0.16700    0.58454   1.00
H2       0.96292    0.12105    0.57560   1.00
H2       0.91460    0.05945    0.60044   1.00
H2       1.07019    0.30750    0.38292   1.00
H2       1.07771    0.26234    0.35613   1.00
C2       1.00241    0.35395    0.50089   1.00
C3       0.98393    0.33403    0.46993   1.00
O2       0.97530    0.35326    0.43563   1.00
C3       1.01812    0.33174    0.53196   1.00
H1       1.03155    0.34615    0.55658   1.00
C3a      0.98245    0.29287    0.47015   1.00
H1       0.97019    0.27798    0.44518   1.00
C3b      1.01771    0.29078    0.53149   1.00
C4       0.99986    0.27100    0.50040   1.00
O_3      1.06444    0.22833    0.47016   1.00
C5       0.93527    0.36280    0.43433   1.00
H2       0.91669    0.33609    0.43613   1.00
C5       0.92798    0.38334    0.39534   1.00
H2       0.92725    0.38274    0.45875   1.00
H2       0.92570    0.36077    0.37208   1.00
H2       0.95440    0.40101    0.38855   1.00
C5       0.89123    0.40931    0.39579   1.00
H2       0.86570    0.39189    0.40562   1.00
H2       0.88507    0.42109    0.36615   1.00
H2       0.89508    0.43506    0.41547   1.00
C5       1.09612    0.25980    0.41748   1.00
H2       1.11988    0.23782    0.41457   1.00
H2       1.10512    0.28045    0.44092   1.00
C5       1.09001    0.28197    0.37888   1.00
H2       1.11838    0.29334    0.36806   1.00
C5       1.07724    0.39917    0.11773   1.00
H2       1.04995    0.39069    0.10245   1.00
H2       1.08321    0.37546    0.13901   1.00
C5       1.11091    0.40233    0.08781   1.00
H2       1.12318    0.37301    0.08110   1.00
H2       1.13454    0.42125    0.09960   1.00
O_3      1.06269    0.53279    0.27000   1.00
C4       0.99956    0.49992    0.22900   1.00
C3c      1.01518    0.46868    0.20757   1.00
H1       1.02745    0.44390    0.22275   1.00
C3d      0.98321    0.53168    0.20865   1.00
C3       1.01577    0.46908    0.16646   1.00
O2       1.02712    0.43554    0.14752   1.00
C3       0.98443    0.53250    0.16773   1.00
H1       0.97279    0.55810    0.15343   1.00
C2       1.00050    0.50135    0.14561   1.00
C5       1.06114    0.57395    0.27121   1.00
H2       1.06248    0.58541    0.30162   1.00
H2       1.03385    0.58506    0.25734   1.00
C5       1.09614    0.58937    0.24878   1.00
H2       1.09539    0.57704    0.21871   1.00
H2       1.12321    0.57840    0.26309   1.00
C5       1.09595    0.63411    0.24746   1.00
H2       1.09642    0.64662    0.27740   1.00
H2       1.06960    0.64506    0.23197   1.00
H2       1.12220    0.64486    0.23170   1.00
C5       0.93073    0.55920    0.23895   1.00
C5       1.06753    0.43708    0.13930   1.00
H2       0.92721    0.53402    0.25912   1.00
H2       0.91182    0.55440    0.21288   1.00
H2       1.08454    0.43898    0.16700   1.00
H2       1.07560    0.46292    0.12105   1.00
H2       1.10044    0.41460    0.05945   1.00
H2       0.88292    0.57019    0.30750   1.00
H2       0.85613    0.57771    0.26234   1.00
C2       1.00089    0.50241    0.35395   1.00
C3       0.96993    0.48393    0.33403   1.00
O2       0.93563    0.47530    0.35326   1.00
C3       1.03196    0.51812    0.33174   1.00
H1       1.05658    0.53155    0.34615   1.00
C3a      0.97015    0.48245    0.29287   1.00
H1       0.94518    0.47019    0.27798   1.00
C3b      1.03149    0.51771    0.29078   1.00
C4       1.00040    0.49986    0.27100   1.00
O_3      0.97016    0.56444    0.22833   1.00
C5       0.93433    0.43527    0.36280   1.00
H2       0.93613    0.41669    0.33609   1.00
C5       0.89534    0.42798    0.38334   1.00
H2       0.95875    0.42725    0.38274   1.00
H2       0.87208    0.42570    0.36077   1.00
H2       0.88855    0.45440    0.40101   1.00
C5       0.89579    0.39123    0.40931   1.00
H2       0.90562    0.36570    0.39189   1.00
H2       0.86615    0.38507    0.42109   1.00
H2       0.91547    0.39508    0.43506   1.00
C5       0.91748    0.59612    0.25980   1.00
H2       0.91457    0.61988    0.23782   1.00
H2       0.94092    0.60512    0.28045   1.00
C5       0.87888    0.59001    0.28197   1.00
H2       0.86806    0.61838    0.29334   1.00
