data_IRMOF10_SG202_interpen_Ligand11lp_label_v.

_audit_creation_method             'generated by an auxiliary program of Tobunporous'

_symmetry_space_group_name_H-M     'P 1'
_symmetry_Int_Tables_number        1
_symmetry_cell_setting             triclinic

_cell_length_a                    34.2800
_cell_length_b                    34.2800
_cell_length_c                    34.2800
_cell_angle_alpha                 90.0000
_cell_angle_beta                  90.0000
_cell_angle_gamma                 90.0000

loop_
_atom_site_label
_atom_site_fract_x
_atom_site_fract_y
_atom_site_fract_z
_atom_site_occupancy
O1       0.75000    0.75000    0.75000   1.00
Zn1      0.71720    0.78280    0.78280   1.00
Zn1      0.78280    0.71720    0.78280   1.00
Zn1      0.78280    0.78280    0.71720   1.00
Zn1      0.71720    0.71720    0.71720   1.00
O2       0.72650    0.77350    0.83820   1.00
O2       0.72650    0.83820    0.77350   1.00
O2       0.66180    0.77350    0.77350   1.00
O2       0.77350    0.72650    0.83820   1.00
O2       0.83820    0.72650    0.77350   1.00
O2       0.77350    0.66180    0.77350   1.00
O2       0.77350    0.83820    0.72650   1.00
O2       0.83820    0.77350    0.72650   1.00
O2       0.77350    0.77350    0.66180   1.00
O2       0.66180    0.72650    0.72650   1.00
O2       0.72650    0.66180    0.72650   1.00
O2       0.72650    0.72650    0.66180   1.00
C1       0.75000    0.75000    0.85520   1.00
C1       0.75000    0.85520    0.75000   1.00
C1       0.64480    0.75000    0.75000   1.00
C1       0.85520    0.75000    0.75000   1.00
C1       0.75000    0.64480    0.75000   1.00
C1       0.75000    0.75000    0.64480   1.00
O1       0.25000    0.25000    0.75000   1.00
Zn1      0.21720    0.28280    0.78280   1.00
Zn1      0.28280    0.21720    0.78280   1.00
Zn1      0.28280    0.28280    0.71720   1.00
Zn1      0.21720    0.21720    0.71720   1.00
O2       0.22650    0.27350    0.83820   1.00
O2       0.22650    0.33820    0.77350   1.00
O2       0.16180    0.27350    0.77350   1.00
O2       0.27350    0.22650    0.83820   1.00
O2       0.33820    0.22650    0.77350   1.00
O2       0.27350    0.16180    0.77350   1.00
O2       0.27350    0.33820    0.72650   1.00
O2       0.33820    0.27350    0.72650   1.00
O2       0.27350    0.27350    0.66180   1.00
O2       0.16180    0.22650    0.72650   1.00
O2       0.22650    0.16180    0.72650   1.00
O2       0.22650    0.22650    0.66180   1.00
C1       0.25000    0.25000    0.85520   1.00
C1       0.25000    0.35520    0.75000   1.00
C1       0.14480    0.25000    0.75000   1.00
C1       0.35520    0.25000    0.75000   1.00
C1       0.25000    0.14480    0.75000   1.00
C1       0.25000    0.25000    0.64480   1.00
O1       0.25000    0.75000    0.25000   1.00
Zn1      0.21720    0.78280    0.28280   1.00
Zn1      0.28280    0.71720    0.28280   1.00
Zn1      0.28280    0.78280    0.21720   1.00
Zn1      0.21720    0.71720    0.21720   1.00
O2       0.22650    0.77350    0.33820   1.00
O2       0.22650    0.83820    0.27350   1.00
O2       0.16180    0.77350    0.27350   1.00
O2       0.27350    0.72650    0.33820   1.00
O2       0.33820    0.72650    0.27350   1.00
O2       0.27350    0.66180    0.27350   1.00
O2       0.27350    0.83820    0.22650   1.00
O2       0.33820    0.77350    0.22650   1.00
O2       0.27350    0.77350    0.16180   1.00
O2       0.16180    0.72650    0.22650   1.00
O2       0.22650    0.66180    0.22650   1.00
O2       0.22650    0.72650    0.16180   1.00
C1       0.25000    0.75000    0.35520   1.00
C1       0.25000    0.85520    0.25000   1.00
C1       0.14480    0.75000    0.25000   1.00
C1       0.35520    0.75000    0.25000   1.00
C1       0.25000    0.64480    0.25000   1.00
C1       0.25000    0.75000    0.14480   1.00
O1       0.75000    0.25000    0.25000   1.00
Zn1      0.71720    0.28280    0.28280   1.00
Zn1      0.78280    0.21720    0.28280   1.00
Zn1      0.78280    0.28280    0.21720   1.00
Zn1      0.71720    0.21720    0.21720   1.00
O2       0.72650    0.27350    0.33820   1.00
O2       0.72650    0.33820    0.27350   1.00
O2       0.66180    0.27350    0.27350   1.00
O2       0.77350    0.22650    0.33820   1.00
O2       0.83820    0.22650    0.27350   1.00
O2       0.77350    0.16180    0.27350   1.00
O2       0.77350    0.33820    0.22650   1.00
O2       0.83820    0.27350    0.22650   1.00
O2       0.77350    0.27350    0.16180   1.00
O2       0.66180    0.22650    0.22650   1.00
O2       0.72650    0.16180    0.22650   1.00
O2       0.72650    0.22650    0.16180   1.00
C1       0.75000    0.25000    0.35520   1.00
C1       0.75000    0.35520    0.25000   1.00
C1       0.64480    0.25000    0.25000   1.00
C1       0.85520    0.25000    0.25000   1.00
C1       0.75000    0.14480    0.25000   1.00
C1       0.75000    0.25000    0.14480   1.00
O1       0.25000    0.25000    0.25000   1.00
Zn1      0.28280    0.21720    0.21720   1.00
Zn1      0.21720    0.28280    0.21720   1.00
Zn1      0.21720    0.21720    0.28280   1.00
Zn1      0.28280    0.28280    0.28280   1.00
O2       0.27350    0.22650    0.16180   1.00
O2       0.27350    0.16180    0.22650   1.00
O2       0.33820    0.22650    0.22650   1.00
O2       0.22650    0.27350    0.16180   1.00
O2       0.16180    0.27350    0.22650   1.00
O2       0.22650    0.33820    0.22650   1.00
O2       0.22650    0.16180    0.27350   1.00
O2       0.16180    0.22650    0.27350   1.00
O2       0.22650    0.22650    0.33820   1.00
O2       0.33820    0.27350    0.27350   1.00
O2       0.27350    0.33820    0.27350   1.00
O2       0.27350    0.27350    0.33820   1.00
C1       0.25000    0.25000    0.14480   1.00
C1       0.25000    0.14480    0.25000   1.00
C1       0.35520    0.25000    0.25000   1.00
C1       0.14480    0.25000    0.25000   1.00
C1       0.25000    0.35520    0.25000   1.00
C1       0.25000    0.25000    0.35520   1.00
O1       0.75000    0.75000    0.25000   1.00
Zn1      0.78280    0.71720    0.21720   1.00
Zn1      0.71720    0.78280    0.21720   1.00
Zn1      0.71720    0.71720    0.28280   1.00
Zn1      0.78280    0.78280    0.28280   1.00
O2       0.77350    0.72650    0.16180   1.00
O2       0.77350    0.66180    0.22650   1.00
O2       0.83820    0.72650    0.22650   1.00
O2       0.72650    0.77350    0.16180   1.00
O2       0.66180    0.77350    0.22650   1.00
O2       0.72650    0.83820    0.22650   1.00
O2       0.72650    0.66180    0.27350   1.00
O2       0.66180    0.72650    0.27350   1.00
O2       0.72650    0.72650    0.33820   1.00
O2       0.83820    0.77350    0.27350   1.00
O2       0.77350    0.83820    0.27350   1.00
O2       0.77350    0.77350    0.33820   1.00
C1       0.75000    0.75000    0.14480   1.00
C1       0.75000    0.64480    0.25000   1.00
C1       0.85520    0.75000    0.25000   1.00
C1       0.64480    0.75000    0.25000   1.00
C1       0.75000    0.85520    0.25000   1.00
C1       0.75000    0.75000    0.35520   1.00
O1       0.75000    0.25000    0.75000   1.00
Zn1      0.78280    0.21720    0.71720   1.00
Zn1      0.71720    0.28280    0.71720   1.00
Zn1      0.71720    0.21720    0.78280   1.00
Zn1      0.78280    0.28280    0.78280   1.00
O2       0.77350    0.22650    0.66180   1.00
O2       0.77350    0.16180    0.72650   1.00
O2       0.83820    0.22650    0.72650   1.00
O2       0.72650    0.27350    0.66180   1.00
O2       0.66180    0.27350    0.72650   1.00
O2       0.72650    0.33820    0.72650   1.00
O2       0.72650    0.16180    0.77350   1.00
O2       0.66180    0.22650    0.77350   1.00
O2       0.72650    0.22650    0.83820   1.00
O2       0.83820    0.27350    0.77350   1.00
O2       0.77350    0.33820    0.77350   1.00
O2       0.77350    0.27350    0.83820   1.00
C1       0.75000    0.25000    0.64480   1.00
C1       0.75000    0.14480    0.75000   1.00
C1       0.85520    0.25000    0.75000   1.00
C1       0.64480    0.25000    0.75000   1.00
C1       0.75000    0.35520    0.75000   1.00
C1       0.75000    0.25000    0.85520   1.00
O1       0.25000    0.75000    0.75000   1.00
Zn1      0.28280    0.71720    0.71720   1.00
Zn1      0.21720    0.78280    0.71720   1.00
Zn1      0.21720    0.71720    0.78280   1.00
Zn1      0.28280    0.78280    0.78280   1.00
O2       0.27350    0.72650    0.66180   1.00
O2       0.27350    0.66180    0.72650   1.00
O2       0.33820    0.72650    0.72650   1.00
O2       0.22650    0.77350    0.66180   1.00
O2       0.16180    0.77350    0.72650   1.00
O2       0.22650    0.83820    0.72650   1.00
O2       0.22650    0.66180    0.77350   1.00
O2       0.16180    0.72650    0.77350   1.00
O2       0.22650    0.72650    0.83820   1.00
O2       0.33820    0.77350    0.77350   1.00
O2       0.27350    0.83820    0.77350   1.00
O2       0.27350    0.77350    0.83820   1.00
C1       0.25000    0.75000    0.64480   1.00
C1       0.25000    0.64480    0.75000   1.00
C1       0.35520    0.75000    0.75000   1.00
C1       0.14480    0.75000    0.75000   1.00
C1       0.25000    0.85520    0.75000   1.00
C1       0.25000    0.75000    0.85520   1.00
O1       1.00000    1.00000    1.00000   1.00
Zn1      0.96720    1.03280    1.03280   1.00
Zn1      1.03280    0.96720    1.03280   1.00
Zn1      1.03280    1.03280    0.96720   1.00
Zn1      0.96720    0.96720    0.96720   1.00
O2       0.97650    1.02350    1.08820   1.00
O2       0.97650    1.08820    1.02350   1.00
O2       0.91180    1.02350    1.02350   1.00
O2       1.02350    0.97650    1.08820   1.00
O2       1.08820    0.97650    1.02350   1.00
O2       1.02350    0.91180    1.02350   1.00
O2       1.02350    1.08820    0.97650   1.00
O2       1.08820    1.02350    0.97650   1.00
O2       1.02350    1.02350    0.91180   1.00
O2       0.91180    0.97650    0.97650   1.00
O2       0.97650    0.91180    0.97650   1.00
O2       0.97650    0.97650    0.91180   1.00
C1       1.00000    1.00000    1.10520   1.00
C1       1.00000    1.10520    1.00000   1.00
C1       0.89480    1.00000    1.00000   1.00
C1       1.10520    1.00000    1.00000   1.00
C1       1.00000    0.89480    1.00000   1.00
C1       1.00000    1.00000    0.89480   1.00
O1       0.50000    0.50000    1.00000   1.00
Zn1      0.46720    0.53280    1.03280   1.00
Zn1      0.53280    0.46720    1.03280   1.00
Zn1      0.53280    0.53280    0.96720   1.00
Zn1      0.46720    0.46720    0.96720   1.00
O2       0.47650    0.52350    1.08820   1.00
O2       0.47650    0.58820    1.02350   1.00
O2       0.41180    0.52350    1.02350   1.00
O2       0.52350    0.47650    1.08820   1.00
O2       0.58820    0.47650    1.02350   1.00
O2       0.52350    0.41180    1.02350   1.00
O2       0.52350    0.58820    0.97650   1.00
O2       0.58820    0.52350    0.97650   1.00
O2       0.52350    0.52350    0.91180   1.00
O2       0.41180    0.47650    0.97650   1.00
O2       0.47650    0.41180    0.97650   1.00
O2       0.47650    0.47650    0.91180   1.00
C1       0.50000    0.50000    1.10520   1.00
C1       0.50000    0.60520    1.00000   1.00
C1       0.39480    0.50000    1.00000   1.00
C1       0.60520    0.50000    1.00000   1.00
C1       0.50000    0.39480    1.00000   1.00
C1       0.50000    0.50000    0.89480   1.00
O1       0.50000    1.00000    0.50000   1.00
Zn1      0.46720    1.03280    0.53280   1.00
Zn1      0.53280    0.96720    0.53280   1.00
Zn1      0.53280    1.03280    0.46720   1.00
Zn1      0.46720    0.96720    0.46720   1.00
O2       0.47650    1.02350    0.58820   1.00
O2       0.47650    1.08820    0.52350   1.00
O2       0.41180    1.02350    0.52350   1.00
O2       0.52350    0.97650    0.58820   1.00
O2       0.58820    0.97650    0.52350   1.00
O2       0.52350    0.91180    0.52350   1.00
O2       0.52350    1.08820    0.47650   1.00
O2       0.58820    1.02350    0.47650   1.00
O2       0.52350    1.02350    0.41180   1.00
O2       0.41180    0.97650    0.47650   1.00
O2       0.47650    0.91180    0.47650   1.00
O2       0.47650    0.97650    0.41180   1.00
C1       0.50000    1.00000    0.60520   1.00
C1       0.50000    1.10520    0.50000   1.00
C1       0.39480    1.00000    0.50000   1.00
C1       0.60520    1.00000    0.50000   1.00
C1       0.50000    0.89480    0.50000   1.00
C1       0.50000    1.00000    0.39480   1.00
O1       1.00000    0.50000    0.50000   1.00
Zn1      0.96720    0.53280    0.53280   1.00
Zn1      1.03280    0.46720    0.53280   1.00
Zn1      1.03280    0.53280    0.46720   1.00
Zn1      0.96720    0.46720    0.46720   1.00
O2       0.97650    0.52350    0.58820   1.00
O2       0.97650    0.58820    0.52350   1.00
O2       0.91180    0.52350    0.52350   1.00
O2       1.02350    0.47650    0.58820   1.00
O2       1.08820    0.47650    0.52350   1.00
O2       1.02350    0.41180    0.52350   1.00
O2       1.02350    0.58820    0.47650   1.00
O2       1.08820    0.52350    0.47650   1.00
O2       1.02350    0.52350    0.41180   1.00
O2       0.91180    0.47650    0.47650   1.00
O2       0.97650    0.41180    0.47650   1.00
O2       0.97650    0.47650    0.41180   1.00
C1       1.00000    0.50000    0.60520   1.00
C1       1.00000    0.60520    0.50000   1.00
C1       0.89480    0.50000    0.50000   1.00
C1       1.10520    0.50000    0.50000   1.00
C1       1.00000    0.39480    0.50000   1.00
C1       1.00000    0.50000    0.39480   1.00
O1       0.50000    0.50000    0.50000   1.00
Zn1      0.53280    0.46720    0.46720   1.00
Zn1      0.46720    0.53280    0.46720   1.00
Zn1      0.46720    0.46720    0.53280   1.00
Zn1      0.53280    0.53280    0.53280   1.00
O2       0.52350    0.47650    0.41180   1.00
O2       0.52350    0.41180    0.47650   1.00
O2       0.58820    0.47650    0.47650   1.00
O2       0.47650    0.52350    0.41180   1.00
O2       0.41180    0.52350    0.47650   1.00
O2       0.47650    0.58820    0.47650   1.00
O2       0.47650    0.41180    0.52350   1.00
O2       0.41180    0.47650    0.52350   1.00
O2       0.47650    0.47650    0.58820   1.00
O2       0.58820    0.52350    0.52350   1.00
O2       0.52350    0.58820    0.52350   1.00
O2       0.52350    0.52350    0.58820   1.00
C1       0.50000    0.50000    0.39480   1.00
C1       0.50000    0.39480    0.50000   1.00
C1       0.60520    0.50000    0.50000   1.00
C1       0.39480    0.50000    0.50000   1.00
C1       0.50000    0.60520    0.50000   1.00
C1       0.50000    0.50000    0.60520   1.00
O1       1.00000    1.00000    0.50000   1.00
Zn1      1.03280    0.96720    0.46720   1.00
Zn1      0.96720    1.03280    0.46720   1.00
Zn1      0.96720    0.96720    0.53280   1.00
Zn1      1.03280    1.03280    0.53280   1.00
O2       1.02350    0.97650    0.41180   1.00
O2       1.02350    0.91180    0.47650   1.00
O2       1.08820    0.97650    0.47650   1.00
O2       0.97650    1.02350    0.41180   1.00
O2       0.91180    1.02350    0.47650   1.00
O2       0.97650    1.08820    0.47650   1.00
O2       0.97650    0.91180    0.52350   1.00
O2       0.91180    0.97650    0.52350   1.00
O2       0.97650    0.97650    0.58820   1.00
O2       1.08820    1.02350    0.52350   1.00
O2       1.02350    1.08820    0.52350   1.00
O2       1.02350    1.02350    0.58820   1.00
C1       1.00000    1.00000    0.39480   1.00
C1       1.00000    0.89480    0.50000   1.00
C1       1.10520    1.00000    0.50000   1.00
C1       0.89480    1.00000    0.50000   1.00
C1       1.00000    1.10520    0.50000   1.00
C1       1.00000    1.00000    0.60520   1.00
O1       1.00000    0.50000    1.00000   1.00
Zn1      1.03280    0.46720    0.96720   1.00
Zn1      0.96720    0.53280    0.96720   1.00
Zn1      0.96720    0.46720    1.03280   1.00
Zn1      1.03280    0.53280    1.03280   1.00
O2       1.02350    0.47650    0.91180   1.00
O2       1.02350    0.41180    0.97650   1.00
O2       1.08820    0.47650    0.97650   1.00
O2       0.97650    0.52350    0.91180   1.00
O2       0.91180    0.52350    0.97650   1.00
O2       0.97650    0.58820    0.97650   1.00
O2       0.97650    0.41180    1.02350   1.00
O2       0.91180    0.47650    1.02350   1.00
O2       0.97650    0.47650    1.08820   1.00
O2       1.08820    0.52350    1.02350   1.00
O2       1.02350    0.58820    1.02350   1.00
O2       1.02350    0.52350    1.08820   1.00
C1       1.00000    0.50000    0.89480   1.00
C1       1.00000    0.39480    1.00000   1.00
C1       1.10520    0.50000    1.00000   1.00
C1       0.89480    0.50000    1.00000   1.00
C1       1.00000    0.60520    1.00000   1.00
C1       1.00000    0.50000    1.10520   1.00
O1       0.50000    1.00000    1.00000   1.00
Zn1      0.53280    0.96720    0.96720   1.00
Zn1      0.46720    1.03280    0.96720   1.00
Zn1      0.46720    0.96720    1.03280   1.00
Zn1      0.53280    1.03280    1.03280   1.00
O2       0.52350    0.97650    0.91180   1.00
O2       0.52350    0.91180    0.97650   1.00
O2       0.58820    0.97650    0.97650   1.00
O2       0.47650    1.02350    0.91180   1.00
O2       0.41180    1.02350    0.97650   1.00
O2       0.47650    1.08820    0.97650   1.00
O2       0.47650    0.91180    1.02350   1.00
O2       0.41180    0.97650    1.02350   1.00
O2       0.47650    0.97650    1.08820   1.00
O2       0.58820    1.02350    1.02350   1.00
O2       0.52350    1.08820    1.02350   1.00
O2       0.52350    1.02350    1.08820   1.00
C1       0.50000    1.00000    0.89480   1.00
C1       0.50000    0.89480    1.00000   1.00
C1       0.60520    1.00000    1.00000   1.00
C1       0.39480    1.00000    1.00000   1.00
C1       0.50000    1.10520    1.00000   1.00
C1       0.50000    1.00000    1.10520   1.00
C4       0.74985    0.75012    0.97915   1.00
C4       0.75015    0.74988    1.02085   1.00
C3a      0.71427    0.74942    0.95746   1.00
C3       0.74318    0.78430    1.04232   1.00
C3       0.78495    0.75120    0.95768   1.00
C3a      0.75759    0.71508    1.04254   1.00
C2       0.75005    0.75007    0.89488   1.00
C2       0.75005    0.75006    1.10512   1.00
C3       0.71495    0.74932    0.91595   1.00
C3       0.74303    0.78432    1.08363   1.00
C3       0.78501    0.75105    0.91637   1.00
C3       0.75735    0.71572    1.08405   1.00
C5       0.67506    0.74813    0.97772   1.00
H1       0.73743    0.81129    1.02691   1.00
H1       0.68784    0.74858    0.89979   1.00
H1       0.73733    0.81131    1.09901   1.00
H1       0.81258    0.75167    0.90099   1.00
H1       0.76282    0.68916    1.10021   1.00
C5       0.76530    0.67661    1.02228   1.00
H1       0.81254    0.75176    0.97309   1.00
H2       0.75920    0.65209    1.04256   1.00
H2       0.74499    0.67284    0.99731   1.00
H2       0.65257    0.73659    0.95744   1.00
H2       0.67603    0.72750    1.00269   1.00
N1       0.80568    0.67434    1.00857   1.00
C6       0.83773    0.67308    1.03073   1.00
C6       0.81749    0.67201    0.97154   1.00
C6       0.87046    0.67044    1.00759   1.00
C6       0.85759    0.66975    0.96995   1.00
H3       0.83752    0.67435    1.06197   1.00
H3       0.79817    0.67226    0.94700   1.00
H3       0.90037    0.66913    1.01713   1.00
H3       0.87545    0.66785    0.94425   1.00
N1       0.66362    0.78692    0.99143   1.00
C6       0.65866    0.79789    1.02846   1.00
C6       0.65508    0.81784    0.96927   1.00
C6       0.64730    0.83641    1.03005   1.00
C6       0.64503    0.84910    0.99241   1.00
H3       0.66331    0.77914    1.05300   1.00
H3       0.65636    0.81793    0.93803   1.00
H3       0.64136    0.85337    1.05575   1.00
H3       0.63691    0.87792    0.98287   1.00
C4       0.75012    0.97915    0.74985   1.00
C4       0.74988    1.02085    0.75015   1.00
C3a      0.74942    0.95746    0.71427   1.00
C3       0.78430    1.04232    0.74318   1.00
C3       0.75120    0.95768    0.78495   1.00
C3a      0.71508    1.04254    0.75759   1.00
C2       0.75007    0.89488    0.75005   1.00
C2       0.75006    1.10512    0.75005   1.00
C3       0.74932    0.91595    0.71495   1.00
C3       0.78432    1.08363    0.74303   1.00
C3       0.75105    0.91637    0.78501   1.00
C3       0.71572    1.08405    0.75735   1.00
C5       0.74813    0.97772    0.67506   1.00
H1       0.81129    1.02691    0.73743   1.00
H1       0.74858    0.89979    0.68784   1.00
H1       0.81131    1.09901    0.73733   1.00
H1       0.75167    0.90099    0.81258   1.00
H1       0.68916    1.10021    0.76282   1.00
C5       0.67661    1.02228    0.76530   1.00
H1       0.75176    0.97309    0.81254   1.00
H2       0.65209    1.04256    0.75920   1.00
H2       0.67284    0.99731    0.74499   1.00
H2       0.73659    0.95744    0.65257   1.00
H2       0.72750    1.00269    0.67603   1.00
N1       0.67434    1.00857    0.80568   1.00
C6       0.67308    1.03073    0.83773   1.00
C6       0.67201    0.97154    0.81749   1.00
C6       0.67044    1.00759    0.87046   1.00
C6       0.66975    0.96995    0.85759   1.00
H3       0.67435    1.06197    0.83752   1.00
H3       0.67226    0.94700    0.79817   1.00
H3       0.66913    1.01713    0.90037   1.00
H3       0.66785    0.94425    0.87545   1.00
N1       0.78692    0.99143    0.66362   1.00
C6       0.79789    1.02846    0.65866   1.00
C6       0.81784    0.96927    0.65508   1.00
C6       0.83641    1.03005    0.64730   1.00
C6       0.84910    0.99241    0.64503   1.00
H3       0.77914    1.05300    0.66331   1.00
H3       0.81793    0.93803    0.65636   1.00
H3       0.85337    1.05575    0.64136   1.00
H3       0.87792    0.98287    0.63691   1.00
C4       0.52085    0.74985    0.74988   1.00
C4       0.47915    0.75015    0.75012   1.00
C3a      0.54254    0.71427    0.75058   1.00
C3       0.45768    0.74318    0.71570   1.00
C3       0.54232    0.78495    0.74880   1.00
C3a      0.45746    0.75759    0.78492   1.00
C2       0.60512    0.75005    0.74993   1.00
C2       0.39488    0.75005    0.74994   1.00
C3       0.58405    0.71495    0.75068   1.00
C3       0.41637    0.74303    0.71568   1.00
C3       0.58363    0.78501    0.74895   1.00
C3       0.41595    0.75735    0.78428   1.00
C5       0.52228    0.67506    0.75187   1.00
H1       0.47309    0.73743    0.68871   1.00
H1       0.60021    0.68784    0.75142   1.00
H1       0.40099    0.73733    0.68869   1.00
H1       0.59901    0.81258    0.74833   1.00
H1       0.39979    0.76282    0.81084   1.00
C5       0.47772    0.76530    0.82339   1.00
H1       0.52691    0.81254    0.74824   1.00
H2       0.45744    0.75920    0.84791   1.00
H2       0.50269    0.74499    0.82716   1.00
H2       0.54256    0.65257    0.76341   1.00
H2       0.49731    0.67603    0.77250   1.00
N1       0.49143    0.80568    0.82566   1.00
C6       0.46927    0.83773    0.82692   1.00
C6       0.52846    0.81749    0.82799   1.00
C6       0.49241    0.87046    0.82956   1.00
C6       0.53005    0.85759    0.83025   1.00
H3       0.43803    0.83752    0.82565   1.00
H3       0.55300    0.79817    0.82774   1.00
H3       0.48287    0.90037    0.83087   1.00
H3       0.55575    0.87545    0.83215   1.00
N1       0.50857    0.66362    0.71308   1.00
C6       0.47154    0.65866    0.70211   1.00
C6       0.53073    0.65508    0.68216   1.00
C6       0.46995    0.64730    0.66359   1.00
C6       0.50759    0.64503    0.65090   1.00
H3       0.44700    0.66331    0.72086   1.00
H3       0.56197    0.65636    0.68207   1.00
H3       0.44425    0.64136    0.64663   1.00
H3       0.51713    0.63691    0.62208   1.00
C4       0.97915    0.74985    0.75012   1.00
C4       1.02085    0.75015    0.74988   1.00
C3a      0.95746    0.71427    0.74942   1.00
C3       1.04232    0.74318    0.78430   1.00
C3       0.95768    0.78495    0.75120   1.00
C3a      1.04254    0.75759    0.71508   1.00
C2       0.89488    0.75005    0.75007   1.00
C2       1.10512    0.75005    0.75006   1.00
C3       0.91595    0.71495    0.74932   1.00
C3       1.08363    0.74303    0.78432   1.00
C3       0.91637    0.78501    0.75105   1.00
C3       1.08405    0.75735    0.71572   1.00
C5       0.97772    0.67506    0.74813   1.00
H1       1.02691    0.73743    0.81129   1.00
H1       0.89979    0.68784    0.74858   1.00
H1       1.09901    0.73733    0.81131   1.00
H1       0.90099    0.81258    0.75167   1.00
H1       1.10021    0.76282    0.68916   1.00
C5       1.02228    0.76530    0.67661   1.00
H1       0.97309    0.81254    0.75176   1.00
H2       1.04256    0.75920    0.65209   1.00
H2       0.99731    0.74499    0.67284   1.00
H2       0.95744    0.65257    0.73659   1.00
H2       1.00269    0.67603    0.72750   1.00
N1       1.00857    0.80568    0.67434   1.00
C6       1.03073    0.83773    0.67308   1.00
C6       0.97154    0.81749    0.67201   1.00
C6       1.00759    0.87046    0.67044   1.00
C6       0.96995    0.85759    0.66975   1.00
H3       1.06197    0.83752    0.67435   1.00
H3       0.94700    0.79817    0.67226   1.00
H3       1.01713    0.90037    0.66913   1.00
H3       0.94425    0.87545    0.66785   1.00
N1       0.99143    0.66362    0.78692   1.00
C6       1.02846    0.65866    0.79789   1.00
C6       0.96927    0.65508    0.81784   1.00
C6       1.03005    0.64730    0.83641   1.00
C6       0.99241    0.64503    0.84910   1.00
H3       1.05300    0.66331    0.77914   1.00
H3       0.93803    0.65636    0.81793   1.00
H3       1.05575    0.64136    0.85337   1.00
H3       0.98287    0.63691    0.87792   1.00
C4       0.74988    0.52085    0.74985   1.00
C4       0.75012    0.47915    0.75015   1.00
C3a      0.75058    0.54254    0.71427   1.00
C3       0.71570    0.45768    0.74318   1.00
C3       0.74880    0.54232    0.78495   1.00
C3a      0.78492    0.45746    0.75759   1.00
C2       0.74993    0.60512    0.75005   1.00
C2       0.74994    0.39488    0.75005   1.00
C3       0.75068    0.58405    0.71495   1.00
C3       0.71568    0.41637    0.74303   1.00
C3       0.74895    0.58363    0.78501   1.00
C3       0.78428    0.41595    0.75735   1.00
C5       0.75187    0.52228    0.67506   1.00
H1       0.68871    0.47309    0.73743   1.00
H1       0.75142    0.60021    0.68784   1.00
H1       0.68869    0.40099    0.73733   1.00
H1       0.74833    0.59901    0.81258   1.00
H1       0.81084    0.39979    0.76282   1.00
C5       0.82339    0.47772    0.76530   1.00
H1       0.74824    0.52691    0.81254   1.00
H2       0.84791    0.45744    0.75920   1.00
H2       0.82716    0.50269    0.74499   1.00
H2       0.76341    0.54256    0.65257   1.00
H2       0.77250    0.49731    0.67603   1.00
N1       0.82566    0.49143    0.80568   1.00
C6       0.82692    0.46927    0.83773   1.00
C6       0.82799    0.52846    0.81749   1.00
C6       0.82956    0.49241    0.87046   1.00
C6       0.83025    0.53005    0.85759   1.00
H3       0.82565    0.43803    0.83752   1.00
H3       0.82774    0.55300    0.79817   1.00
H3       0.83087    0.48287    0.90037   1.00
H3       0.83215    0.55575    0.87545   1.00
N1       0.71308    0.50857    0.66362   1.00
C6       0.70211    0.47154    0.65866   1.00
C6       0.68216    0.53073    0.65508   1.00
C6       0.66359    0.46995    0.64730   1.00
C6       0.65090    0.50759    0.64503   1.00
H3       0.72086    0.44700    0.66331   1.00
H3       0.68207    0.56197    0.65636   1.00
H3       0.64663    0.44425    0.64136   1.00
H3       0.62208    0.51713    0.63691   1.00
C4       0.74985    0.74988    0.52085   1.00
C4       0.75015    0.75012    0.47915   1.00
C3a      0.71427    0.75058    0.54254   1.00
C3       0.74318    0.71570    0.45768   1.00
C3       0.78495    0.74880    0.54232   1.00
C3a      0.75759    0.78492    0.45746   1.00
C2       0.75005    0.74993    0.60512   1.00
C2       0.75005    0.74994    0.39488   1.00
C3       0.71495    0.75068    0.58405   1.00
C3       0.74303    0.71568    0.41637   1.00
C3       0.78501    0.74895    0.58363   1.00
C3       0.75735    0.78428    0.41595   1.00
C5       0.67506    0.75187    0.52228   1.00
H1       0.73743    0.68871    0.47309   1.00
H1       0.68784    0.75142    0.60021   1.00
H1       0.73733    0.68869    0.40099   1.00
H1       0.81258    0.74833    0.59901   1.00
H1       0.76282    0.81084    0.39979   1.00
C5       0.76530    0.82339    0.47772   1.00
H1       0.81254    0.74824    0.52691   1.00
H2       0.75920    0.84791    0.45744   1.00
H2       0.74499    0.82716    0.50269   1.00
H2       0.65257    0.76341    0.54256   1.00
H2       0.67603    0.77250    0.49731   1.00
N1       0.80568    0.82566    0.49143   1.00
C6       0.83773    0.82692    0.46927   1.00
C6       0.81749    0.82799    0.52846   1.00
C6       0.87046    0.82956    0.49241   1.00
C6       0.85759    0.83025    0.53005   1.00
H3       0.83752    0.82565    0.43803   1.00
H3       0.79817    0.82774    0.55300   1.00
H3       0.90037    0.83087    0.48287   1.00
H3       0.87545    0.83215    0.55575   1.00
N1       0.66362    0.71308    0.50857   1.00
C6       0.65866    0.70211    0.47154   1.00
C6       0.65508    0.68216    0.53073   1.00
C6       0.64730    0.66359    0.46995   1.00
C6       0.64503    0.65090    0.50759   1.00
H3       0.66331    0.72086    0.44700   1.00
H3       0.65636    0.68207    0.56197   1.00
H3       0.64136    0.64663    0.44425   1.00
H3       0.63691    0.62208    0.51713   1.00
C4       0.24985    0.25012    0.97915   1.00
C4       0.25015    0.24988    1.02085   1.00
C3a      0.21427    0.24942    0.95746   1.00
C3       0.24318    0.28430    1.04232   1.00
C3       0.28495    0.25120    0.95768   1.00
C3a      0.25759    0.21508    1.04254   1.00
C2       0.25005    0.25007    0.89488   1.00
C2       0.25005    0.25006    1.10512   1.00
C3       0.21495    0.24932    0.91595   1.00
C3       0.24303    0.28432    1.08363   1.00
C3       0.28501    0.25105    0.91637   1.00
C3       0.25735    0.21572    1.08405   1.00
C5       0.17506    0.24813    0.97772   1.00
H1       0.23743    0.31129    1.02691   1.00
H1       0.18784    0.24858    0.89979   1.00
H1       0.23733    0.31131    1.09901   1.00
H1       0.31258    0.25167    0.90099   1.00
H1       0.26282    0.18916    1.10021   1.00
C5       0.26530    0.17661    1.02228   1.00
H1       0.31254    0.25176    0.97309   1.00
H2       0.25920    0.15209    1.04256   1.00
H2       0.24499    0.17284    0.99731   1.00
H2       0.15257    0.23659    0.95744   1.00
H2       0.17603    0.22750    1.00269   1.00
N1       0.30568    0.17434    1.00857   1.00
C6       0.33773    0.17308    1.03073   1.00
C6       0.31749    0.17201    0.97154   1.00
C6       0.37046    0.17044    1.00759   1.00
C6       0.35759    0.16975    0.96995   1.00
H3       0.33752    0.17435    1.06197   1.00
H3       0.29817    0.17226    0.94700   1.00
H3       0.40037    0.16913    1.01713   1.00
H3       0.37545    0.16785    0.94425   1.00
N1       0.16362    0.28692    0.99143   1.00
C6       0.15866    0.29789    1.02846   1.00
C6       0.15508    0.31784    0.96927   1.00
C6       0.14730    0.33641    1.03005   1.00
C6       0.14503    0.34910    0.99241   1.00
H3       0.16331    0.27914    1.05300   1.00
H3       0.15636    0.31793    0.93803   1.00
H3       0.14136    0.35337    1.05575   1.00
H3       0.13691    0.37792    0.98287   1.00
C4       0.25012    0.47915    0.74985   1.00
C4       0.24988    0.52085    0.75015   1.00
C3a      0.24942    0.45746    0.71427   1.00
C3       0.28430    0.54232    0.74318   1.00
C3       0.25120    0.45768    0.78495   1.00
C3a      0.21508    0.54254    0.75759   1.00
C2       0.25007    0.39488    0.75005   1.00
C2       0.25006    0.60512    0.75005   1.00
C3       0.24932    0.41595    0.71495   1.00
C3       0.28432    0.58363    0.74303   1.00
C3       0.25105    0.41637    0.78501   1.00
C3       0.21572    0.58405    0.75735   1.00
C5       0.24813    0.47772    0.67506   1.00
H1       0.31129    0.52691    0.73743   1.00
H1       0.24858    0.39979    0.68784   1.00
H1       0.31131    0.59901    0.73733   1.00
H1       0.25167    0.40099    0.81258   1.00
H1       0.18916    0.60021    0.76282   1.00
C5       0.17661    0.52228    0.76530   1.00
H1       0.25176    0.47309    0.81254   1.00
H2       0.15209    0.54256    0.75920   1.00
H2       0.17284    0.49731    0.74499   1.00
H2       0.23659    0.45744    0.65257   1.00
H2       0.22750    0.50269    0.67603   1.00
N1       0.17434    0.50857    0.80568   1.00
C6       0.17308    0.53073    0.83773   1.00
C6       0.17201    0.47154    0.81749   1.00
C6       0.17044    0.50759    0.87046   1.00
C6       0.16975    0.46995    0.85759   1.00
H3       0.17435    0.56197    0.83752   1.00
H3       0.17226    0.44700    0.79817   1.00
H3       0.16913    0.51713    0.90037   1.00
H3       0.16785    0.44425    0.87545   1.00
N1       0.28692    0.49143    0.66362   1.00
C6       0.29789    0.52846    0.65866   1.00
C6       0.31784    0.46927    0.65508   1.00
C6       0.33641    0.53005    0.64730   1.00
C6       0.34910    0.49241    0.64503   1.00
H3       0.27914    0.55300    0.66331   1.00
H3       0.31793    0.43803    0.65636   1.00
H3       0.35337    0.55575    0.64136   1.00
H3       0.37792    0.48287    0.63691   1.00
C4       0.02085    0.24985    0.74988   1.00
C4       -0.02085   0.25015    0.75012   1.00
C3a      0.04254    0.21427    0.75058   1.00
C3       -0.04232   0.24318    0.71570   1.00
C3       0.04232    0.28495    0.74880   1.00
C3a      -0.04254   0.25759    0.78492   1.00
C2       0.10512    0.25005    0.74993   1.00
C2       -0.10512   0.25005    0.74994   1.00
C3       0.08405    0.21495    0.75068   1.00
C3       -0.08363   0.24303    0.71568   1.00
C3       0.08363    0.28501    0.74895   1.00
C3       -0.08405   0.25735    0.78428   1.00
C5       0.02228    0.17506    0.75187   1.00
H1       -0.02691   0.23743    0.68871   1.00
H1       0.10021    0.18784    0.75142   1.00
H1       -0.09901   0.23733    0.68869   1.00
H1       0.09901    0.31258    0.74833   1.00
H1       -0.10021   0.26282    0.81084   1.00
C5       -0.02228   0.26530    0.82339   1.00
H1       0.02691    0.31254    0.74824   1.00
H2       -0.04256   0.25920    0.84791   1.00
H2       0.00269    0.24499    0.82716   1.00
H2       0.04256    0.15257    0.76341   1.00
H2       -0.00269   0.17603    0.77250   1.00
N1       -0.00857   0.30568    0.82566   1.00
C6       -0.03073   0.33773    0.82692   1.00
C6       0.02846    0.31749    0.82799   1.00
C6       -0.00759   0.37046    0.82956   1.00
C6       0.03005    0.35759    0.83025   1.00
H3       -0.06197   0.33752    0.82565   1.00
H3       0.05300    0.29817    0.82774   1.00
H3       -0.01713   0.40037    0.83087   1.00
H3       0.05575    0.37545    0.83215   1.00
N1       0.00857    0.16362    0.71308   1.00
C6       -0.02846   0.15866    0.70211   1.00
C6       0.03073    0.15508    0.68216   1.00
C6       -0.03005   0.14730    0.66359   1.00
C6       0.00759    0.14503    0.65090   1.00
H3       -0.05300   0.16331    0.72086   1.00
H3       0.06197    0.15636    0.68207   1.00
H3       -0.05575   0.14136    0.64663   1.00
H3       0.01713    0.13691    0.62208   1.00
C4       0.47915    0.24985    0.75012   1.00
C4       0.52085    0.25015    0.74988   1.00
C3a      0.45746    0.21427    0.74942   1.00
C3       0.54232    0.24318    0.78430   1.00
C3       0.45768    0.28495    0.75120   1.00
C3a      0.54254    0.25759    0.71508   1.00
C2       0.39488    0.25005    0.75007   1.00
C2       0.60512    0.25005    0.75006   1.00
C3       0.41595    0.21495    0.74932   1.00
C3       0.58363    0.24303    0.78432   1.00
C3       0.41637    0.28501    0.75105   1.00
C3       0.58405    0.25735    0.71572   1.00
C5       0.47772    0.17506    0.74813   1.00
H1       0.52691    0.23743    0.81129   1.00
H1       0.39979    0.18784    0.74858   1.00
H1       0.59901    0.23733    0.81131   1.00
H1       0.40099    0.31258    0.75167   1.00
H1       0.60021    0.26282    0.68916   1.00
C5       0.52228    0.26530    0.67661   1.00
H1       0.47309    0.31254    0.75176   1.00
H2       0.54256    0.25920    0.65209   1.00
H2       0.49731    0.24499    0.67284   1.00
H2       0.45744    0.15257    0.73659   1.00
H2       0.50269    0.17603    0.72750   1.00
N1       0.50857    0.30568    0.67434   1.00
C6       0.53073    0.33773    0.67308   1.00
C6       0.47154    0.31749    0.67201   1.00
C6       0.50759    0.37046    0.67044   1.00
C6       0.46995    0.35759    0.66975   1.00
H3       0.56197    0.33752    0.67435   1.00
H3       0.44700    0.29817    0.67226   1.00
H3       0.51713    0.40037    0.66913   1.00
H3       0.44425    0.37545    0.66785   1.00
N1       0.49143    0.16362    0.78692   1.00
C6       0.52846    0.15866    0.79789   1.00
C6       0.46927    0.15508    0.81784   1.00
C6       0.53005    0.14730    0.83641   1.00
C6       0.49241    0.14503    0.84910   1.00
H3       0.55300    0.16331    0.77914   1.00
H3       0.43803    0.15636    0.81793   1.00
H3       0.55575    0.14136    0.85337   1.00
H3       0.48287    0.13691    0.87792   1.00
C4       0.24988    0.02085    0.74985   1.00
C4       0.25012    -0.02085   0.75015   1.00
C3a      0.25058    0.04254    0.71427   1.00
C3       0.21570    -0.04232   0.74318   1.00
C3       0.24880    0.04232    0.78495   1.00
C3a      0.28492    -0.04254   0.75759   1.00
C2       0.24993    0.10512    0.75005   1.00
C2       0.24994    -0.10512   0.75005   1.00
C3       0.25068    0.08405    0.71495   1.00
C3       0.21568    -0.08363   0.74303   1.00
C3       0.24895    0.08363    0.78501   1.00
C3       0.28428    -0.08405   0.75735   1.00
C5       0.25187    0.02228    0.67506   1.00
H1       0.18871    -0.02691   0.73743   1.00
H1       0.25142    0.10021    0.68784   1.00
H1       0.18869    -0.09901   0.73733   1.00
H1       0.24833    0.09901    0.81258   1.00
H1       0.31084    -0.10021   0.76282   1.00
C5       0.32339    -0.02228   0.76530   1.00
H1       0.24824    0.02691    0.81254   1.00
H2       0.34791    -0.04256   0.75920   1.00
H2       0.32716    0.00269    0.74499   1.00
H2       0.26341    0.04256    0.65257   1.00
H2       0.27250    -0.00269   0.67603   1.00
N1       0.32566    -0.00857   0.80568   1.00
C6       0.32692    -0.03073   0.83773   1.00
C6       0.32799    0.02846    0.81749   1.00
C6       0.32956    -0.00759   0.87046   1.00
C6       0.33025    0.03005    0.85759   1.00
H3       0.32565    -0.06197   0.83752   1.00
H3       0.32774    0.05300    0.79817   1.00
H3       0.33087    -0.01713   0.90037   1.00
H3       0.33215    0.05575    0.87545   1.00
N1       0.21308    0.00857    0.66362   1.00
C6       0.20211    -0.02846   0.65866   1.00
C6       0.18216    0.03073    0.65508   1.00
C6       0.16359    -0.03005   0.64730   1.00
C6       0.15090    0.00759    0.64503   1.00
H3       0.22086    -0.05300   0.66331   1.00
H3       0.18207    0.06197    0.65636   1.00
H3       0.14663    -0.05575   0.64136   1.00
H3       0.12208    0.01713    0.63691   1.00
C4       0.24985    0.24988    0.52085   1.00
C4       0.25015    0.25012    0.47915   1.00
C3a      0.21427    0.25058    0.54254   1.00
C3       0.24318    0.21570    0.45768   1.00
C3       0.28495    0.24880    0.54232   1.00
C3a      0.25759    0.28492    0.45746   1.00
C2       0.25005    0.24993    0.60512   1.00
C2       0.25005    0.24994    0.39488   1.00
C3       0.21495    0.25068    0.58405   1.00
C3       0.24303    0.21568    0.41637   1.00
C3       0.28501    0.24895    0.58363   1.00
C3       0.25735    0.28428    0.41595   1.00
C5       0.17506    0.25187    0.52228   1.00
H1       0.23743    0.18871    0.47309   1.00
H1       0.18784    0.25142    0.60021   1.00
H1       0.23733    0.18869    0.40099   1.00
H1       0.31258    0.24833    0.59901   1.00
H1       0.26282    0.31084    0.39979   1.00
C5       0.26530    0.32339    0.47772   1.00
H1       0.31254    0.24824    0.52691   1.00
H2       0.25920    0.34791    0.45744   1.00
H2       0.24499    0.32716    0.50269   1.00
H2       0.15257    0.26341    0.54256   1.00
H2       0.17603    0.27250    0.49731   1.00
N1       0.30568    0.32566    0.49143   1.00
C6       0.33773    0.32692    0.46927   1.00
C6       0.31749    0.32799    0.52846   1.00
C6       0.37046    0.32956    0.49241   1.00
C6       0.35759    0.33025    0.53005   1.00
H3       0.33752    0.32565    0.43803   1.00
H3       0.29817    0.32774    0.55300   1.00
H3       0.40037    0.33087    0.48287   1.00
H3       0.37545    0.33215    0.55575   1.00
N1       0.16362    0.21308    0.50857   1.00
C6       0.15866    0.20211    0.47154   1.00
C6       0.15508    0.18216    0.53073   1.00
C6       0.14730    0.16359    0.46995   1.00
C6       0.14503    0.15090    0.50759   1.00
H3       0.16331    0.22086    0.44700   1.00
H3       0.15636    0.18207    0.56197   1.00
H3       0.14136    0.14663    0.44425   1.00
H3       0.13691    0.12208    0.51713   1.00
C4       0.24985    0.75012    0.47915   1.00
C4       0.25015    0.74988    0.52085   1.00
C3a      0.21427    0.74942    0.45746   1.00
C3       0.24318    0.78430    0.54232   1.00
C3       0.28495    0.75120    0.45768   1.00
C3a      0.25759    0.71508    0.54254   1.00
C2       0.25005    0.75007    0.39488   1.00
C2       0.25005    0.75006    0.60512   1.00
C3       0.21495    0.74932    0.41595   1.00
C3       0.24303    0.78432    0.58363   1.00
C3       0.28501    0.75105    0.41637   1.00
C3       0.25735    0.71572    0.58405   1.00
C5       0.17506    0.74813    0.47772   1.00
H1       0.23743    0.81129    0.52691   1.00
H1       0.18784    0.74858    0.39979   1.00
H1       0.23733    0.81131    0.59901   1.00
H1       0.31258    0.75167    0.40099   1.00
H1       0.26282    0.68916    0.60021   1.00
C5       0.26530    0.67661    0.52228   1.00
H1       0.31254    0.75176    0.47309   1.00
H2       0.25920    0.65209    0.54256   1.00
H2       0.24499    0.67284    0.49731   1.00
H2       0.15257    0.73659    0.45744   1.00
H2       0.17603    0.72750    0.50269   1.00
N1       0.30568    0.67434    0.50857   1.00
C6       0.33773    0.67308    0.53073   1.00
C6       0.31749    0.67201    0.47154   1.00
C6       0.37046    0.67044    0.50759   1.00
C6       0.35759    0.66975    0.46995   1.00
H3       0.33752    0.67435    0.56197   1.00
H3       0.29817    0.67226    0.44700   1.00
H3       0.40037    0.66913    0.51713   1.00
H3       0.37545    0.66785    0.44425   1.00
N1       0.16362    0.78692    0.49143   1.00
C6       0.15866    0.79789    0.52846   1.00
C6       0.15508    0.81784    0.46927   1.00
C6       0.14730    0.83641    0.53005   1.00
C6       0.14503    0.84910    0.49241   1.00
H3       0.16331    0.77914    0.55300   1.00
H3       0.15636    0.81793    0.43803   1.00
H3       0.14136    0.85337    0.55575   1.00
H3       0.13691    0.87792    0.48287   1.00
C4       0.25012    0.97915    0.24985   1.00
C4       0.24988    1.02085    0.25015   1.00
C3a      0.24942    0.95746    0.21427   1.00
C3       0.28430    1.04232    0.24318   1.00
C3       0.25120    0.95768    0.28495   1.00
C3a      0.21508    1.04254    0.25759   1.00
C2       0.25007    0.89488    0.25005   1.00
C2       0.25006    1.10512    0.25005   1.00
C3       0.24932    0.91595    0.21495   1.00
C3       0.28432    1.08363    0.24303   1.00
C3       0.25105    0.91637    0.28501   1.00
C3       0.21572    1.08405    0.25735   1.00
C5       0.24813    0.97772    0.17506   1.00
H1       0.31129    1.02691    0.23743   1.00
H1       0.24858    0.89979    0.18784   1.00
H1       0.31131    1.09901    0.23733   1.00
H1       0.25167    0.90099    0.31258   1.00
H1       0.18916    1.10021    0.26282   1.00
C5       0.17661    1.02228    0.26530   1.00
H1       0.25176    0.97309    0.31254   1.00
H2       0.15209    1.04256    0.25920   1.00
H2       0.17284    0.99731    0.24499   1.00
H2       0.23659    0.95744    0.15257   1.00
H2       0.22750    1.00269    0.17603   1.00
N1       0.17434    1.00857    0.30568   1.00
C6       0.17308    1.03073    0.33773   1.00
C6       0.17201    0.97154    0.31749   1.00
C6       0.17044    1.00759    0.37046   1.00
C6       0.16975    0.96995    0.35759   1.00
H3       0.17435    1.06197    0.33752   1.00
H3       0.17226    0.94700    0.29817   1.00
H3       0.16913    1.01713    0.40037   1.00
H3       0.16785    0.94425    0.37545   1.00
N1       0.28692    0.99143    0.16362   1.00
C6       0.29789    1.02846    0.15866   1.00
C6       0.31784    0.96927    0.15508   1.00
C6       0.33641    1.03005    0.14730   1.00
C6       0.34910    0.99241    0.14503   1.00
H3       0.27914    1.05300    0.16331   1.00
H3       0.31793    0.93803    0.15636   1.00
H3       0.35337    1.05575    0.14136   1.00
H3       0.37792    0.98287    0.13691   1.00
C4       0.02085    0.74985    0.24988   1.00
C4       -0.02085   0.75015    0.25012   1.00
C3a      0.04254    0.71427    0.25058   1.00
C3       -0.04232   0.74318    0.21570   1.00
C3       0.04232    0.78495    0.24880   1.00
C3a      -0.04254   0.75759    0.28492   1.00
C2       0.10512    0.75005    0.24993   1.00
C2       -0.10512   0.75005    0.24994   1.00
C3       0.08405    0.71495    0.25068   1.00
C3       -0.08363   0.74303    0.21568   1.00
C3       0.08363    0.78501    0.24895   1.00
C3       -0.08405   0.75735    0.28428   1.00
C5       0.02228    0.67506    0.25187   1.00
H1       -0.02691   0.73743    0.18871   1.00
H1       0.10021    0.68784    0.25142   1.00
H1       -0.09901   0.73733    0.18869   1.00
H1       0.09901    0.81258    0.24833   1.00
H1       -0.10021   0.76282    0.31084   1.00
C5       -0.02228   0.76530    0.32339   1.00
H1       0.02691    0.81254    0.24824   1.00
H2       -0.04256   0.75920    0.34791   1.00
H2       0.00269    0.74499    0.32716   1.00
H2       0.04256    0.65257    0.26341   1.00
H2       -0.00269   0.67603    0.27250   1.00
N1       -0.00857   0.80568    0.32566   1.00
C6       -0.03073   0.83773    0.32692   1.00
C6       0.02846    0.81749    0.32799   1.00
C6       -0.00759   0.87046    0.32956   1.00
C6       0.03005    0.85759    0.33025   1.00
H3       -0.06197   0.83752    0.32565   1.00
H3       0.05300    0.79817    0.32774   1.00
H3       -0.01713   0.90037    0.33087   1.00
H3       0.05575    0.87545    0.33215   1.00
N1       0.00857    0.66362    0.21308   1.00
C6       -0.02846   0.65866    0.20211   1.00
C6       0.03073    0.65508    0.18216   1.00
C6       -0.03005   0.64730    0.16359   1.00
C6       0.00759    0.64503    0.15090   1.00
H3       -0.05300   0.66331    0.22086   1.00
H3       0.06197    0.65636    0.18207   1.00
H3       -0.05575   0.64136    0.14663   1.00
H3       0.01713    0.63691    0.12208   1.00
C4       0.47915    0.74985    0.25012   1.00
C4       0.52085    0.75015    0.24988   1.00
C3a      0.45746    0.71427    0.24942   1.00
C3       0.54232    0.74318    0.28430   1.00
C3       0.45768    0.78495    0.25120   1.00
C3a      0.54254    0.75759    0.21508   1.00
C2       0.39488    0.75005    0.25007   1.00
C2       0.60512    0.75005    0.25006   1.00
C3       0.41595    0.71495    0.24932   1.00
C3       0.58363    0.74303    0.28432   1.00
C3       0.41637    0.78501    0.25105   1.00
C3       0.58405    0.75735    0.21572   1.00
C5       0.47772    0.67506    0.24813   1.00
H1       0.52691    0.73743    0.31129   1.00
H1       0.39979    0.68784    0.24858   1.00
H1       0.59901    0.73733    0.31131   1.00
H1       0.40099    0.81258    0.25167   1.00
H1       0.60021    0.76282    0.18916   1.00
C5       0.52228    0.76530    0.17661   1.00
H1       0.47309    0.81254    0.25176   1.00
H2       0.54256    0.75920    0.15209   1.00
H2       0.49731    0.74499    0.17284   1.00
H2       0.45744    0.65257    0.23659   1.00
H2       0.50269    0.67603    0.22750   1.00
N1       0.50857    0.80568    0.17434   1.00
C6       0.53073    0.83773    0.17308   1.00
C6       0.47154    0.81749    0.17201   1.00
C6       0.50759    0.87046    0.17044   1.00
C6       0.46995    0.85759    0.16975   1.00
H3       0.56197    0.83752    0.17435   1.00
H3       0.44700    0.79817    0.17226   1.00
H3       0.51713    0.90037    0.16913   1.00
H3       0.44425    0.87545    0.16785   1.00
N1       0.49143    0.66362    0.28692   1.00
C6       0.52846    0.65866    0.29789   1.00
C6       0.46927    0.65508    0.31784   1.00
C6       0.53005    0.64730    0.33641   1.00
C6       0.49241    0.64503    0.34910   1.00
H3       0.55300    0.66331    0.27914   1.00
H3       0.43803    0.65636    0.31793   1.00
H3       0.55575    0.64136    0.35337   1.00
H3       0.48287    0.63691    0.37792   1.00
C4       0.24988    0.52085    0.24985   1.00
C4       0.25012    0.47915    0.25015   1.00
C3a      0.25058    0.54254    0.21427   1.00
C3       0.21570    0.45768    0.24318   1.00
C3       0.24880    0.54232    0.28495   1.00
C3a      0.28492    0.45746    0.25759   1.00
C2       0.24993    0.60512    0.25005   1.00
C2       0.24994    0.39488    0.25005   1.00
C3       0.25068    0.58405    0.21495   1.00
C3       0.21568    0.41637    0.24303   1.00
C3       0.24895    0.58363    0.28501   1.00
C3       0.28428    0.41595    0.25735   1.00
C5       0.25187    0.52228    0.17506   1.00
H1       0.18871    0.47309    0.23743   1.00
H1       0.25142    0.60021    0.18784   1.00
H1       0.18869    0.40099    0.23733   1.00
H1       0.24833    0.59901    0.31258   1.00
H1       0.31084    0.39979    0.26282   1.00
C5       0.32339    0.47772    0.26530   1.00
H1       0.24824    0.52691    0.31254   1.00
H2       0.34791    0.45744    0.25920   1.00
H2       0.32716    0.50269    0.24499   1.00
H2       0.26341    0.54256    0.15257   1.00
H2       0.27250    0.49731    0.17603   1.00
N1       0.32566    0.49143    0.30568   1.00
C6       0.32692    0.46927    0.33773   1.00
C6       0.32799    0.52846    0.31749   1.00
C6       0.32956    0.49241    0.37046   1.00
C6       0.33025    0.53005    0.35759   1.00
H3       0.32565    0.43803    0.33752   1.00
H3       0.32774    0.55300    0.29817   1.00
H3       0.33087    0.48287    0.40037   1.00
H3       0.33215    0.55575    0.37545   1.00
N1       0.21308    0.50857    0.16362   1.00
C6       0.20211    0.47154    0.15866   1.00
C6       0.18216    0.53073    0.15508   1.00
C6       0.16359    0.46995    0.14730   1.00
C6       0.15090    0.50759    0.14503   1.00
H3       0.22086    0.44700    0.16331   1.00
H3       0.18207    0.56197    0.15636   1.00
H3       0.14663    0.44425    0.14136   1.00
H3       0.12208    0.51713    0.13691   1.00
C4       0.24985    0.74988    0.02085   1.00
C4       0.25015    0.75012    -0.02085   1.00
C3a      0.21427    0.75058    0.04254   1.00
C3       0.24318    0.71570    -0.04232   1.00
C3       0.28495    0.74880    0.04232   1.00
C3a      0.25759    0.78492    -0.04254   1.00
C2       0.25005    0.74993    0.10512   1.00
C2       0.25005    0.74994    -0.10512   1.00
C3       0.21495    0.75068    0.08405   1.00
C3       0.24303    0.71568    -0.08363   1.00
C3       0.28501    0.74895    0.08363   1.00
C3       0.25735    0.78428    -0.08405   1.00
C5       0.17506    0.75187    0.02228   1.00
H1       0.23743    0.68871    -0.02691   1.00
H1       0.18784    0.75142    0.10021   1.00
H1       0.23733    0.68869    -0.09901   1.00
H1       0.31258    0.74833    0.09901   1.00
H1       0.26282    0.81084    -0.10021   1.00
C5       0.26530    0.82339    -0.02228   1.00
H1       0.31254    0.74824    0.02691   1.00
H2       0.25920    0.84791    -0.04256   1.00
H2       0.24499    0.82716    0.00269   1.00
H2       0.15257    0.76341    0.04256   1.00
H2       0.17603    0.77250    -0.00269   1.00
N1       0.30568    0.82566    -0.00857   1.00
C6       0.33773    0.82692    -0.03073   1.00
C6       0.31749    0.82799    0.02846   1.00
C6       0.37046    0.82956    -0.00759   1.00
C6       0.35759    0.83025    0.03005   1.00
H3       0.33752    0.82565    -0.06197   1.00
H3       0.29817    0.82774    0.05300   1.00
H3       0.40037    0.83087    -0.01713   1.00
H3       0.37545    0.83215    0.05575   1.00
N1       0.16362    0.71308    0.00857   1.00
C6       0.15866    0.70211    -0.02846   1.00
C6       0.15508    0.68216    0.03073   1.00
C6       0.14730    0.66359    -0.03005   1.00
C6       0.14503    0.65090    0.00759   1.00
H3       0.16331    0.72086    -0.05300   1.00
H3       0.15636    0.68207    0.06197   1.00
H3       0.14136    0.64663    -0.05575   1.00
H3       0.13691    0.62208    0.01713   1.00
C4       0.74985    0.25012    0.47915   1.00
C4       0.75015    0.24988    0.52085   1.00
C3a      0.71427    0.24942    0.45746   1.00
C3       0.74318    0.28430    0.54232   1.00
C3       0.78495    0.25120    0.45768   1.00
C3a      0.75759    0.21508    0.54254   1.00
C2       0.75005    0.25007    0.39488   1.00
C2       0.75005    0.25006    0.60512   1.00
C3       0.71495    0.24932    0.41595   1.00
C3       0.74303    0.28432    0.58363   1.00
C3       0.78501    0.25105    0.41637   1.00
C3       0.75735    0.21572    0.58405   1.00
C5       0.67506    0.24813    0.47772   1.00
H1       0.73743    0.31129    0.52691   1.00
H1       0.68784    0.24858    0.39979   1.00
H1       0.73733    0.31131    0.59901   1.00
H1       0.81258    0.25167    0.40099   1.00
H1       0.76282    0.18916    0.60021   1.00
C5       0.76530    0.17661    0.52228   1.00
H1       0.81254    0.25176    0.47309   1.00
H2       0.75920    0.15209    0.54256   1.00
H2       0.74499    0.17284    0.49731   1.00
H2       0.65257    0.23659    0.45744   1.00
H2       0.67603    0.22750    0.50269   1.00
N1       0.80568    0.17434    0.50857   1.00
C6       0.83773    0.17308    0.53073   1.00
C6       0.81749    0.17201    0.47154   1.00
C6       0.87046    0.17044    0.50759   1.00
C6       0.85759    0.16975    0.46995   1.00
H3       0.83752    0.17435    0.56197   1.00
H3       0.79817    0.17226    0.44700   1.00
H3       0.90037    0.16913    0.51713   1.00
H3       0.87545    0.16785    0.44425   1.00
N1       0.66362    0.28692    0.49143   1.00
C6       0.65866    0.29789    0.52846   1.00
C6       0.65508    0.31784    0.46927   1.00
C6       0.64730    0.33641    0.53005   1.00
C6       0.64503    0.34910    0.49241   1.00
H3       0.66331    0.27914    0.55300   1.00
H3       0.65636    0.31793    0.43803   1.00
H3       0.64136    0.35337    0.55575   1.00
H3       0.63691    0.37792    0.48287   1.00
C4       0.75012    0.47915    0.24985   1.00
C4       0.74988    0.52085    0.25015   1.00
C3a      0.74942    0.45746    0.21427   1.00
C3       0.78430    0.54232    0.24318   1.00
C3       0.75120    0.45768    0.28495   1.00
C3a      0.71508    0.54254    0.25759   1.00
C2       0.75007    0.39488    0.25005   1.00
C2       0.75006    0.60512    0.25005   1.00
C3       0.74932    0.41595    0.21495   1.00
C3       0.78432    0.58363    0.24303   1.00
C3       0.75105    0.41637    0.28501   1.00
C3       0.71572    0.58405    0.25735   1.00
C5       0.74813    0.47772    0.17506   1.00
H1       0.81129    0.52691    0.23743   1.00
H1       0.74858    0.39979    0.18784   1.00
H1       0.81131    0.59901    0.23733   1.00
H1       0.75167    0.40099    0.31258   1.00
H1       0.68916    0.60021    0.26282   1.00
C5       0.67661    0.52228    0.26530   1.00
H1       0.75176    0.47309    0.31254   1.00
H2       0.65209    0.54256    0.25920   1.00
H2       0.67284    0.49731    0.24499   1.00
H2       0.73659    0.45744    0.15257   1.00
H2       0.72750    0.50269    0.17603   1.00
N1       0.67434    0.50857    0.30568   1.00
C6       0.67308    0.53073    0.33773   1.00
C6       0.67201    0.47154    0.31749   1.00
C6       0.67044    0.50759    0.37046   1.00
C6       0.66975    0.46995    0.35759   1.00
H3       0.67435    0.56197    0.33752   1.00
H3       0.67226    0.44700    0.29817   1.00
H3       0.66913    0.51713    0.40037   1.00
H3       0.66785    0.44425    0.37545   1.00
N1       0.78692    0.49143    0.16362   1.00
C6       0.79789    0.52846    0.15866   1.00
C6       0.81784    0.46927    0.15508   1.00
C6       0.83641    0.53005    0.14730   1.00
C6       0.84910    0.49241    0.14503   1.00
H3       0.77914    0.55300    0.16331   1.00
H3       0.81793    0.43803    0.15636   1.00
H3       0.85337    0.55575    0.14136   1.00
H3       0.87792    0.48287    0.13691   1.00
C4       0.52085    0.24985    0.24988   1.00
C4       0.47915    0.25015    0.25012   1.00
C3a      0.54254    0.21427    0.25058   1.00
C3       0.45768    0.24318    0.21570   1.00
C3       0.54232    0.28495    0.24880   1.00
C3a      0.45746    0.25759    0.28492   1.00
C2       0.60512    0.25005    0.24993   1.00
C2       0.39488    0.25005    0.24994   1.00
C3       0.58405    0.21495    0.25068   1.00
C3       0.41637    0.24303    0.21568   1.00
C3       0.58363    0.28501    0.24895   1.00
C3       0.41595    0.25735    0.28428   1.00
C5       0.52228    0.17506    0.25187   1.00
H1       0.47309    0.23743    0.18871   1.00
H1       0.60021    0.18784    0.25142   1.00
H1       0.40099    0.23733    0.18869   1.00
H1       0.59901    0.31258    0.24833   1.00
H1       0.39979    0.26282    0.31084   1.00
C5       0.47772    0.26530    0.32339   1.00
H1       0.52691    0.31254    0.24824   1.00
H2       0.45744    0.25920    0.34791   1.00
H2       0.50269    0.24499    0.32716   1.00
H2       0.54256    0.15257    0.26341   1.00
H2       0.49731    0.17603    0.27250   1.00
N1       0.49143    0.30568    0.32566   1.00
C6       0.46927    0.33773    0.32692   1.00
C6       0.52846    0.31749    0.32799   1.00
C6       0.49241    0.37046    0.32956   1.00
C6       0.53005    0.35759    0.33025   1.00
H3       0.43803    0.33752    0.32565   1.00
H3       0.55300    0.29817    0.32774   1.00
H3       0.48287    0.40037    0.33087   1.00
H3       0.55575    0.37545    0.33215   1.00
N1       0.50857    0.16362    0.21308   1.00
C6       0.47154    0.15866    0.20211   1.00
C6       0.53073    0.15508    0.18216   1.00
C6       0.46995    0.14730    0.16359   1.00
C6       0.50759    0.14503    0.15090   1.00
H3       0.44700    0.16331    0.22086   1.00
H3       0.56197    0.15636    0.18207   1.00
H3       0.44425    0.14136    0.14663   1.00
H3       0.51713    0.13691    0.12208   1.00
C4       0.97915    0.24985    0.25012   1.00
C4       1.02085    0.25015    0.24988   1.00
C3a      0.95746    0.21427    0.24942   1.00
C3       1.04232    0.24318    0.28430   1.00
C3       0.95768    0.28495    0.25120   1.00
C3a      1.04254    0.25759    0.21508   1.00
C2       0.89488    0.25005    0.25007   1.00
C2       1.10512    0.25005    0.25006   1.00
C3       0.91595    0.21495    0.24932   1.00
C3       1.08363    0.24303    0.28432   1.00
C3       0.91637    0.28501    0.25105   1.00
C3       1.08405    0.25735    0.21572   1.00
C5       0.97772    0.17506    0.24813   1.00
H1       1.02691    0.23743    0.31129   1.00
H1       0.89979    0.18784    0.24858   1.00
H1       1.09901    0.23733    0.31131   1.00
H1       0.90099    0.31258    0.25167   1.00
H1       1.10021    0.26282    0.18916   1.00
C5       1.02228    0.26530    0.17661   1.00
H1       0.97309    0.31254    0.25176   1.00
H2       1.04256    0.25920    0.15209   1.00
H2       0.99731    0.24499    0.17284   1.00
H2       0.95744    0.15257    0.23659   1.00
H2       1.00269    0.17603    0.22750   1.00
N1       1.00857    0.30568    0.17434   1.00
C6       1.03073    0.33773    0.17308   1.00
C6       0.97154    0.31749    0.17201   1.00
C6       1.00759    0.37046    0.17044   1.00
C6       0.96995    0.35759    0.16975   1.00
H3       1.06197    0.33752    0.17435   1.00
H3       0.94700    0.29817    0.17226   1.00
H3       1.01713    0.40037    0.16913   1.00
H3       0.94425    0.37545    0.16785   1.00
N1       0.99143    0.16362    0.28692   1.00
C6       1.02846    0.15866    0.29789   1.00
C6       0.96927    0.15508    0.31784   1.00
C6       1.03005    0.14730    0.33641   1.00
C6       0.99241    0.14503    0.34910   1.00
H3       1.05300    0.16331    0.27914   1.00
H3       0.93803    0.15636    0.31793   1.00
H3       1.05575    0.14136    0.35337   1.00
H3       0.98287    0.13691    0.37792   1.00
C4       0.74988    0.02085    0.24985   1.00
C4       0.75012    -0.02085   0.25015   1.00
C3a      0.75058    0.04254    0.21427   1.00
C3       0.71570    -0.04232   0.24318   1.00
C3       0.74880    0.04232    0.28495   1.00
C3a      0.78492    -0.04254   0.25759   1.00
C2       0.74993    0.10512    0.25005   1.00
C2       0.74994    -0.10512   0.25005   1.00
C3       0.75068    0.08405    0.21495   1.00
C3       0.71568    -0.08363   0.24303   1.00
C3       0.74895    0.08363    0.28501   1.00
C3       0.78428    -0.08405   0.25735   1.00
C5       0.75187    0.02228    0.17506   1.00
H1       0.68871    -0.02691   0.23743   1.00
H1       0.75142    0.10021    0.18784   1.00
H1       0.68869    -0.09901   0.23733   1.00
H1       0.74833    0.09901    0.31258   1.00
H1       0.81084    -0.10021   0.26282   1.00
C5       0.82339    -0.02228   0.26530   1.00
H1       0.74824    0.02691    0.31254   1.00
H2       0.84791    -0.04256   0.25920   1.00
H2       0.82716    0.00269    0.24499   1.00
H2       0.76341    0.04256    0.15257   1.00
H2       0.77250    -0.00269   0.17603   1.00
N1       0.82566    -0.00857   0.30568   1.00
C6       0.82692    -0.03073   0.33773   1.00
C6       0.82799    0.02846    0.31749   1.00
C6       0.82956    -0.00759   0.37046   1.00
C6       0.83025    0.03005    0.35759   1.00
H3       0.82565    -0.06197   0.33752   1.00
H3       0.82774    0.05300    0.29817   1.00
H3       0.83087    -0.01713   0.40037   1.00
H3       0.83215    0.05575    0.37545   1.00
N1       0.71308    0.00857    0.16362   1.00
C6       0.70211    -0.02846   0.15866   1.00
C6       0.68216    0.03073    0.15508   1.00
C6       0.66359    -0.03005   0.14730   1.00
C6       0.65090    0.00759    0.14503   1.00
H3       0.72086    -0.05300   0.16331   1.00
H3       0.68207    0.06197    0.15636   1.00
H3       0.64663    -0.05575   0.14136   1.00
H3       0.62208    0.01713    0.13691   1.00
C4       0.74985    0.24988    0.02085   1.00
C4       0.75015    0.25012    -0.02085   1.00
C3a      0.71427    0.25058    0.04254   1.00
C3       0.74318    0.21570    -0.04232   1.00
C3       0.78495    0.24880    0.04232   1.00
C3a      0.75759    0.28492    -0.04254   1.00
C2       0.75005    0.24993    0.10512   1.00
C2       0.75005    0.24994    -0.10512   1.00
C3       0.71495    0.25068    0.08405   1.00
C3       0.74303    0.21568    -0.08363   1.00
C3       0.78501    0.24895    0.08363   1.00
C3       0.75735    0.28428    -0.08405   1.00
C5       0.67506    0.25187    0.02228   1.00
H1       0.73743    0.18871    -0.02691   1.00
H1       0.68784    0.25142    0.10021   1.00
H1       0.73733    0.18869    -0.09901   1.00
H1       0.81258    0.24833    0.09901   1.00
H1       0.76282    0.31084    -0.10021   1.00
C5       0.76530    0.32339    -0.02228   1.00
H1       0.81254    0.24824    0.02691   1.00
H2       0.75920    0.34791    -0.04256   1.00
H2       0.74499    0.32716    0.00269   1.00
H2       0.65257    0.26341    0.04256   1.00
H2       0.67603    0.27250    -0.00269   1.00
N1       0.80568    0.32566    -0.00857   1.00
C6       0.83773    0.32692    -0.03073   1.00
C6       0.81749    0.32799    0.02846   1.00
C6       0.87046    0.32956    -0.00759   1.00
C6       0.85759    0.33025    0.03005   1.00
H3       0.83752    0.32565    -0.06197   1.00
H3       0.79817    0.32774    0.05300   1.00
H3       0.90037    0.33087    -0.01713   1.00
H3       0.87545    0.33215    0.05575   1.00
N1       0.66362    0.21308    0.00857   1.00
C6       0.65866    0.20211    -0.02846   1.00
C6       0.65508    0.18216    0.03073   1.00
C6       0.64730    0.16359    -0.03005   1.00
C6       0.64503    0.15090    0.00759   1.00
H3       0.66331    0.22086    -0.05300   1.00
H3       0.65636    0.18207    0.06197   1.00
H3       0.64136    0.14663    -0.05575   1.00
H3       0.63691    0.12208    0.01713   1.00
C4       0.99985    1.00012    1.22915   1.00
C4       1.00015    0.99988    1.27085   1.00
C3a      0.96427    0.99942    1.20746   1.00
C3       0.99318    1.03430    1.29232   1.00
C3       1.03495    1.00120    1.20768   1.00
C3a      1.00759    0.96508    1.29254   1.00
C2       1.00005    1.00007    1.14488   1.00
C2       1.00005    1.00006    1.35512   1.00
C3       0.96495    0.99932    1.16595   1.00
C3       0.99303    1.03432    1.33363   1.00
C3       1.03501    1.00105    1.16637   1.00
C3       1.00735    0.96572    1.33405   1.00
C5       0.92506    0.99813    1.22772   1.00
H1       0.98743    1.06129    1.27691   1.00
H1       0.93784    0.99858    1.14979   1.00
H1       0.98733    1.06131    1.34901   1.00
H1       1.06258    1.00167    1.15099   1.00
H1       1.01282    0.93916    1.35021   1.00
C5       1.01530    0.92661    1.27228   1.00
H1       1.06254    1.00176    1.22309   1.00
H2       1.00920    0.90209    1.29256   1.00
H2       0.99499    0.92284    1.24731   1.00
H2       0.90257    0.98659    1.20744   1.00
H2       0.92603    0.97750    1.25269   1.00
N1       1.05568    0.92434    1.25857   1.00
C6       1.08773    0.92308    1.28073   1.00
C6       1.06749    0.92201    1.22154   1.00
C6       1.12046    0.92044    1.25759   1.00
C6       1.10759    0.91975    1.21995   1.00
H3       1.08752    0.92435    1.31197   1.00
H3       1.04817    0.92226    1.19700   1.00
H3       1.15037    0.91913    1.26713   1.00
H3       1.12545    0.91785    1.19425   1.00
N1       0.91362    1.03692    1.24143   1.00
C6       0.90866    1.04789    1.27846   1.00
C6       0.90508    1.06784    1.21927   1.00
C6       0.89730    1.08641    1.28005   1.00
C6       0.89503    1.09910    1.24241   1.00
H3       0.91331    1.02914    1.30300   1.00
H3       0.90636    1.06793    1.18803   1.00
H3       0.89136    1.10337    1.30575   1.00
H3       0.88691    1.12792    1.23287   1.00
C4       1.00012    1.22915    0.99985   1.00
C4       0.99988    1.27085    1.00015   1.00
C3a      0.99942    1.20746    0.96427   1.00
C3       1.03430    1.29232    0.99318   1.00
C3       1.00120    1.20768    1.03495   1.00
C3a      0.96508    1.29254    1.00759   1.00
C2       1.00007    1.14488    1.00005   1.00
C2       1.00006    1.35512    1.00005   1.00
C3       0.99932    1.16595    0.96495   1.00
C3       1.03432    1.33363    0.99303   1.00
C3       1.00105    1.16637    1.03501   1.00
C3       0.96572    1.33405    1.00735   1.00
C5       0.99813    1.22772    0.92506   1.00
H1       1.06129    1.27691    0.98743   1.00
H1       0.99858    1.14979    0.93784   1.00
H1       1.06131    1.34901    0.98733   1.00
H1       1.00167    1.15099    1.06258   1.00
H1       0.93916    1.35021    1.01282   1.00
C5       0.92661    1.27228    1.01530   1.00
H1       1.00176    1.22309    1.06254   1.00
H2       0.90209    1.29256    1.00920   1.00
H2       0.92284    1.24731    0.99499   1.00
H2       0.98659    1.20744    0.90257   1.00
H2       0.97750    1.25269    0.92603   1.00
N1       0.92434    1.25857    1.05568   1.00
C6       0.92308    1.28073    1.08773   1.00
C6       0.92201    1.22154    1.06749   1.00
C6       0.92044    1.25759    1.12046   1.00
C6       0.91975    1.21995    1.10759   1.00
H3       0.92435    1.31197    1.08752   1.00
H3       0.92226    1.19700    1.04817   1.00
H3       0.91913    1.26713    1.15037   1.00
H3       0.91785    1.19425    1.12545   1.00
N1       1.03692    1.24143    0.91362   1.00
C6       1.04789    1.27846    0.90866   1.00
C6       1.06784    1.21927    0.90508   1.00
C6       1.08641    1.28005    0.89730   1.00
C6       1.09910    1.24241    0.89503   1.00
H3       1.02914    1.30300    0.91331   1.00
H3       1.06793    1.18803    0.90636   1.00
H3       1.10337    1.30575    0.89136   1.00
H3       1.12792    1.23287    0.88691   1.00
C4       0.77085    0.99985    0.99988   1.00
C4       0.72915    1.00015    1.00012   1.00
C3a      0.79254    0.96427    1.00058   1.00
C3       0.70768    0.99318    0.96570   1.00
C3       0.79232    1.03495    0.99880   1.00
C3a      0.70746    1.00759    1.03492   1.00
C2       0.85512    1.00005    0.99993   1.00
C2       0.64488    1.00005    0.99994   1.00
C3       0.83405    0.96495    1.00068   1.00
C3       0.66637    0.99303    0.96568   1.00
C3       0.83363    1.03501    0.99895   1.00
C3       0.66595    1.00735    1.03428   1.00
C5       0.77228    0.92506    1.00187   1.00
H1       0.72309    0.98743    0.93871   1.00
H1       0.85021    0.93784    1.00142   1.00
H1       0.65099    0.98733    0.93869   1.00
H1       0.84901    1.06258    0.99833   1.00
H1       0.64979    1.01282    1.06084   1.00
C5       0.72772    1.01530    1.07339   1.00
H1       0.77691    1.06254    0.99824   1.00
H2       0.70744    1.00920    1.09791   1.00
H2       0.75269    0.99499    1.07716   1.00
H2       0.79256    0.90257    1.01341   1.00
H2       0.74731    0.92603    1.02250   1.00
N1       0.74143    1.05568    1.07566   1.00
C6       0.71927    1.08773    1.07692   1.00
C6       0.77846    1.06749    1.07799   1.00
C6       0.74241    1.12046    1.07956   1.00
C6       0.78005    1.10759    1.08025   1.00
H3       0.68803    1.08752    1.07565   1.00
H3       0.80300    1.04817    1.07774   1.00
H3       0.73287    1.15037    1.08087   1.00
H3       0.80575    1.12545    1.08215   1.00
N1       0.75857    0.91362    0.96308   1.00
C6       0.72154    0.90866    0.95211   1.00
C6       0.78073    0.90508    0.93216   1.00
C6       0.71995    0.89730    0.91359   1.00
C6       0.75759    0.89503    0.90090   1.00
H3       0.69700    0.91331    0.97086   1.00
H3       0.81197    0.90636    0.93207   1.00
H3       0.69425    0.89136    0.89663   1.00
H3       0.76713    0.88691    0.87208   1.00
C4       1.22915    0.99985    1.00012   1.00
C4       1.27085    1.00015    0.99988   1.00
C3a      1.20746    0.96427    0.99942   1.00
C3       1.29232    0.99318    1.03430   1.00
C3       1.20768    1.03495    1.00120   1.00
C3a      1.29254    1.00759    0.96508   1.00
C2       1.14488    1.00005    1.00007   1.00
C2       1.35512    1.00005    1.00006   1.00
C3       1.16595    0.96495    0.99932   1.00
C3       1.33363    0.99303    1.03432   1.00
C3       1.16637    1.03501    1.00105   1.00
C3       1.33405    1.00735    0.96572   1.00
C5       1.22772    0.92506    0.99813   1.00
H1       1.27691    0.98743    1.06129   1.00
H1       1.14979    0.93784    0.99858   1.00
H1       1.34901    0.98733    1.06131   1.00
H1       1.15099    1.06258    1.00167   1.00
H1       1.35021    1.01282    0.93916   1.00
C5       1.27228    1.01530    0.92661   1.00
H1       1.22309    1.06254    1.00176   1.00
H2       1.29256    1.00920    0.90209   1.00
H2       1.24731    0.99499    0.92284   1.00
H2       1.20744    0.90257    0.98659   1.00
H2       1.25269    0.92603    0.97750   1.00
N1       1.25857    1.05568    0.92434   1.00
C6       1.28073    1.08773    0.92308   1.00
C6       1.22154    1.06749    0.92201   1.00
C6       1.25759    1.12046    0.92044   1.00
C6       1.21995    1.10759    0.91975   1.00
H3       1.31197    1.08752    0.92435   1.00
H3       1.19700    1.04817    0.92226   1.00
H3       1.26713    1.15037    0.91913   1.00
H3       1.19425    1.12545    0.91785   1.00
N1       1.24143    0.91362    1.03692   1.00
C6       1.27846    0.90866    1.04789   1.00
C6       1.21927    0.90508    1.06784   1.00
C6       1.28005    0.89730    1.08641   1.00
C6       1.24241    0.89503    1.09910   1.00
H3       1.30300    0.91331    1.02914   1.00
H3       1.18803    0.90636    1.06793   1.00
H3       1.30575    0.89136    1.10337   1.00
H3       1.23287    0.88691    1.12792   1.00
C4       0.99988    0.77085    0.99985   1.00
C4       1.00012    0.72915    1.00015   1.00
C3a      1.00058    0.79254    0.96427   1.00
C3       0.96570    0.70768    0.99318   1.00
C3       0.99880    0.79232    1.03495   1.00
C3a      1.03492    0.70746    1.00759   1.00
C2       0.99993    0.85512    1.00005   1.00
C2       0.99994    0.64488    1.00005   1.00
C3       1.00068    0.83405    0.96495   1.00
C3       0.96568    0.66637    0.99303   1.00
C3       0.99895    0.83363    1.03501   1.00
C3       1.03428    0.66595    1.00735   1.00
C5       1.00187    0.77228    0.92506   1.00
H1       0.93871    0.72309    0.98743   1.00
H1       1.00142    0.85021    0.93784   1.00
H1       0.93869    0.65099    0.98733   1.00
H1       0.99833    0.84901    1.06258   1.00
H1       1.06084    0.64979    1.01282   1.00
C5       1.07339    0.72772    1.01530   1.00
H1       0.99824    0.77691    1.06254   1.00
H2       1.09791    0.70744    1.00920   1.00
H2       1.07716    0.75269    0.99499   1.00
H2       1.01341    0.79256    0.90257   1.00
H2       1.02250    0.74731    0.92603   1.00
N1       1.07566    0.74143    1.05568   1.00
C6       1.07692    0.71927    1.08773   1.00
C6       1.07799    0.77846    1.06749   1.00
C6       1.07956    0.74241    1.12046   1.00
C6       1.08025    0.78005    1.10759   1.00
H3       1.07565    0.68803    1.08752   1.00
H3       1.07774    0.80300    1.04817   1.00
H3       1.08087    0.73287    1.15037   1.00
H3       1.08215    0.80575    1.12545   1.00
N1       0.96308    0.75857    0.91362   1.00
C6       0.95211    0.72154    0.90866   1.00
C6       0.93216    0.78073    0.90508   1.00
C6       0.91359    0.71995    0.89730   1.00
C6       0.90090    0.75759    0.89503   1.00
H3       0.97086    0.69700    0.91331   1.00
H3       0.93207    0.81197    0.90636   1.00
H3       0.89663    0.69425    0.89136   1.00
H3       0.87208    0.76713    0.88691   1.00
C4       0.99985    0.99988    0.77085   1.00
C4       1.00015    1.00012    0.72915   1.00
C3a      0.96427    1.00058    0.79254   1.00
C3       0.99318    0.96570    0.70768   1.00
C3       1.03495    0.99880    0.79232   1.00
C3a      1.00759    1.03492    0.70746   1.00
C2       1.00005    0.99993    0.85512   1.00
C2       1.00005    0.99994    0.64488   1.00
C3       0.96495    1.00068    0.83405   1.00
C3       0.99303    0.96568    0.66637   1.00
C3       1.03501    0.99895    0.83363   1.00
C3       1.00735    1.03428    0.66595   1.00
C5       0.92506    1.00187    0.77228   1.00
H1       0.98743    0.93871    0.72309   1.00
H1       0.93784    1.00142    0.85021   1.00
H1       0.98733    0.93869    0.65099   1.00
H1       1.06258    0.99833    0.84901   1.00
H1       1.01282    1.06084    0.64979   1.00
C5       1.01530    1.07339    0.72772   1.00
H1       1.06254    0.99824    0.77691   1.00
H2       1.00920    1.09791    0.70744   1.00
H2       0.99499    1.07716    0.75269   1.00
H2       0.90257    1.01341    0.79256   1.00
H2       0.92603    1.02250    0.74731   1.00
N1       1.05568    1.07566    0.74143   1.00
C6       1.08773    1.07692    0.71927   1.00
C6       1.06749    1.07799    0.77846   1.00
C6       1.12046    1.07956    0.74241   1.00
C6       1.10759    1.08025    0.78005   1.00
H3       1.08752    1.07565    0.68803   1.00
H3       1.04817    1.07774    0.80300   1.00
H3       1.15037    1.08087    0.73287   1.00
H3       1.12545    1.08215    0.80575   1.00
N1       0.91362    0.96308    0.75857   1.00
C6       0.90866    0.95211    0.72154   1.00
C6       0.90508    0.93216    0.78073   1.00
C6       0.89730    0.91359    0.71995   1.00
C6       0.89503    0.90090    0.75759   1.00
H3       0.91331    0.97086    0.69700   1.00
H3       0.90636    0.93207    0.81197   1.00
H3       0.89136    0.89663    0.69425   1.00
H3       0.88691    0.87208    0.76713   1.00
C4       0.49985    0.50012    1.22915   1.00
C4       0.50015    0.49988    1.27085   1.00
C3a      0.46427    0.49942    1.20746   1.00
C3       0.49318    0.53430    1.29232   1.00
C3       0.53495    0.50120    1.20768   1.00
C3a      0.50759    0.46508    1.29254   1.00
C2       0.50005    0.50007    1.14488   1.00
C2       0.50005    0.50006    1.35512   1.00
C3       0.46495    0.49932    1.16595   1.00
C3       0.49303    0.53432    1.33363   1.00
C3       0.53501    0.50105    1.16637   1.00
C3       0.50735    0.46572    1.33405   1.00
C5       0.42506    0.49813    1.22772   1.00
H1       0.48743    0.56129    1.27691   1.00
H1       0.43784    0.49858    1.14979   1.00
H1       0.48733    0.56131    1.34901   1.00
H1       0.56258    0.50167    1.15099   1.00
H1       0.51282    0.43916    1.35021   1.00
C5       0.51530    0.42661    1.27228   1.00
H1       0.56254    0.50176    1.22309   1.00
H2       0.50920    0.40209    1.29256   1.00
H2       0.49499    0.42284    1.24731   1.00
H2       0.40257    0.48659    1.20744   1.00
H2       0.42603    0.47750    1.25269   1.00
N1       0.55568    0.42434    1.25857   1.00
C6       0.58773    0.42308    1.28073   1.00
C6       0.56749    0.42201    1.22154   1.00
C6       0.62046    0.42044    1.25759   1.00
C6       0.60759    0.41975    1.21995   1.00
H3       0.58752    0.42435    1.31197   1.00
H3       0.54817    0.42226    1.19700   1.00
H3       0.65037    0.41913    1.26713   1.00
H3       0.62545    0.41785    1.19425   1.00
N1       0.41362    0.53692    1.24143   1.00
C6       0.40866    0.54789    1.27846   1.00
C6       0.40508    0.56784    1.21927   1.00
C6       0.39730    0.58641    1.28005   1.00
C6       0.39503    0.59910    1.24241   1.00
H3       0.41331    0.52914    1.30300   1.00
H3       0.40636    0.56793    1.18803   1.00
H3       0.39136    0.60337    1.30575   1.00
H3       0.38691    0.62792    1.23287   1.00
C4       0.50012    0.72915    0.99985   1.00
C4       0.49988    0.77085    1.00015   1.00
C3a      0.49942    0.70746    0.96427   1.00
C3       0.53430    0.79232    0.99318   1.00
C3       0.50120    0.70768    1.03495   1.00
C3a      0.46508    0.79254    1.00759   1.00
C2       0.50007    0.64488    1.00005   1.00
C2       0.50006    0.85512    1.00005   1.00
C3       0.49932    0.66595    0.96495   1.00
C3       0.53432    0.83363    0.99303   1.00
C3       0.50105    0.66637    1.03501   1.00
C3       0.46572    0.83405    1.00735   1.00
C5       0.49813    0.72772    0.92506   1.00
H1       0.56129    0.77691    0.98743   1.00
H1       0.49858    0.64979    0.93784   1.00
H1       0.56131    0.84901    0.98733   1.00
H1       0.50167    0.65099    1.06258   1.00
H1       0.43916    0.85021    1.01282   1.00
C5       0.42661    0.77228    1.01530   1.00
H1       0.50176    0.72309    1.06254   1.00
H2       0.40209    0.79256    1.00920   1.00
H2       0.42284    0.74731    0.99499   1.00
H2       0.48659    0.70744    0.90257   1.00
H2       0.47750    0.75269    0.92603   1.00
N1       0.42434    0.75857    1.05568   1.00
C6       0.42308    0.78073    1.08773   1.00
C6       0.42201    0.72154    1.06749   1.00
C6       0.42044    0.75759    1.12046   1.00
C6       0.41975    0.71995    1.10759   1.00
H3       0.42435    0.81197    1.08752   1.00
H3       0.42226    0.69700    1.04817   1.00
H3       0.41913    0.76713    1.15037   1.00
H3       0.41785    0.69425    1.12545   1.00
N1       0.53692    0.74143    0.91362   1.00
C6       0.54789    0.77846    0.90866   1.00
C6       0.56784    0.71927    0.90508   1.00
C6       0.58641    0.78005    0.89730   1.00
C6       0.59910    0.74241    0.89503   1.00
H3       0.52914    0.80300    0.91331   1.00
H3       0.56793    0.68803    0.90636   1.00
H3       0.60337    0.80575    0.89136   1.00
H3       0.62792    0.73287    0.88691   1.00
C4       0.27085    0.49985    0.99988   1.00
C4       0.22915    0.50015    1.00012   1.00
C3a      0.29254    0.46427    1.00058   1.00
C3       0.20768    0.49318    0.96570   1.00
C3       0.29232    0.53495    0.99880   1.00
C3a      0.20746    0.50759    1.03492   1.00
C2       0.35512    0.50005    0.99993   1.00
C2       0.14488    0.50005    0.99994   1.00
C3       0.33405    0.46495    1.00068   1.00
C3       0.16637    0.49303    0.96568   1.00
C3       0.33363    0.53501    0.99895   1.00
C3       0.16595    0.50735    1.03428   1.00
C5       0.27228    0.42506    1.00187   1.00
H1       0.22309    0.48743    0.93871   1.00
H1       0.35021    0.43784    1.00142   1.00
H1       0.15099    0.48733    0.93869   1.00
H1       0.34901    0.56258    0.99833   1.00
H1       0.14979    0.51282    1.06084   1.00
C5       0.22772    0.51530    1.07339   1.00
H1       0.27691    0.56254    0.99824   1.00
H2       0.20744    0.50920    1.09791   1.00
H2       0.25269    0.49499    1.07716   1.00
H2       0.29256    0.40257    1.01341   1.00
H2       0.24731    0.42603    1.02250   1.00
N1       0.24143    0.55568    1.07566   1.00
C6       0.21927    0.58773    1.07692   1.00
C6       0.27846    0.56749    1.07799   1.00
C6       0.24241    0.62046    1.07956   1.00
C6       0.28005    0.60759    1.08025   1.00
H3       0.18803    0.58752    1.07565   1.00
H3       0.30300    0.54817    1.07774   1.00
H3       0.23287    0.65037    1.08087   1.00
H3       0.30575    0.62545    1.08215   1.00
N1       0.25857    0.41362    0.96308   1.00
C6       0.22154    0.40866    0.95211   1.00
C6       0.28073    0.40508    0.93216   1.00
C6       0.21995    0.39730    0.91359   1.00
C6       0.25759    0.39503    0.90090   1.00
H3       0.19700    0.41331    0.97086   1.00
H3       0.31197    0.40636    0.93207   1.00
H3       0.19425    0.39136    0.89663   1.00
H3       0.26713    0.38691    0.87208   1.00
C4       0.72915    0.49985    1.00012   1.00
C4       0.77085    0.50015    0.99988   1.00
C3a      0.70746    0.46427    0.99942   1.00
C3       0.79232    0.49318    1.03430   1.00
C3       0.70768    0.53495    1.00120   1.00
C3a      0.79254    0.50759    0.96508   1.00
C2       0.64488    0.50005    1.00007   1.00
C2       0.85512    0.50005    1.00006   1.00
C3       0.66595    0.46495    0.99932   1.00
C3       0.83363    0.49303    1.03432   1.00
C3       0.66637    0.53501    1.00105   1.00
C3       0.83405    0.50735    0.96572   1.00
C5       0.72772    0.42506    0.99813   1.00
H1       0.77691    0.48743    1.06129   1.00
H1       0.64979    0.43784    0.99858   1.00
H1       0.84901    0.48733    1.06131   1.00
H1       0.65099    0.56258    1.00167   1.00
H1       0.85021    0.51282    0.93916   1.00
C5       0.77228    0.51530    0.92661   1.00
H1       0.72309    0.56254    1.00176   1.00
H2       0.79256    0.50920    0.90209   1.00
H2       0.74731    0.49499    0.92284   1.00
H2       0.70744    0.40257    0.98659   1.00
H2       0.75269    0.42603    0.97750   1.00
N1       0.75857    0.55568    0.92434   1.00
C6       0.78073    0.58773    0.92308   1.00
C6       0.72154    0.56749    0.92201   1.00
C6       0.75759    0.62046    0.92044   1.00
C6       0.71995    0.60759    0.91975   1.00
H3       0.81197    0.58752    0.92435   1.00
H3       0.69700    0.54817    0.92226   1.00
H3       0.76713    0.65037    0.91913   1.00
H3       0.69425    0.62545    0.91785   1.00
N1       0.74143    0.41362    1.03692   1.00
C6       0.77846    0.40866    1.04789   1.00
C6       0.71927    0.40508    1.06784   1.00
C6       0.78005    0.39730    1.08641   1.00
C6       0.74241    0.39503    1.09910   1.00
H3       0.80300    0.41331    1.02914   1.00
H3       0.68803    0.40636    1.06793   1.00
H3       0.80575    0.39136    1.10337   1.00
H3       0.73287    0.38691    1.12792   1.00
C4       0.49988    0.27085    0.99985   1.00
C4       0.50012    0.22915    1.00015   1.00
C3a      0.50058    0.29254    0.96427   1.00
C3       0.46570    0.20768    0.99318   1.00
C3       0.49880    0.29232    1.03495   1.00
C3a      0.53492    0.20746    1.00759   1.00
C2       0.49993    0.35512    1.00005   1.00
C2       0.49994    0.14488    1.00005   1.00
C3       0.50068    0.33405    0.96495   1.00
C3       0.46568    0.16637    0.99303   1.00
C3       0.49895    0.33363    1.03501   1.00
C3       0.53428    0.16595    1.00735   1.00
C5       0.50187    0.27228    0.92506   1.00
H1       0.43871    0.22309    0.98743   1.00
H1       0.50142    0.35021    0.93784   1.00
H1       0.43869    0.15099    0.98733   1.00
H1       0.49833    0.34901    1.06258   1.00
H1       0.56084    0.14979    1.01282   1.00
C5       0.57339    0.22772    1.01530   1.00
H1       0.49824    0.27691    1.06254   1.00
H2       0.59791    0.20744    1.00920   1.00
H2       0.57716    0.25269    0.99499   1.00
H2       0.51341    0.29256    0.90257   1.00
H2       0.52250    0.24731    0.92603   1.00
N1       0.57566    0.24143    1.05568   1.00
C6       0.57692    0.21927    1.08773   1.00
C6       0.57799    0.27846    1.06749   1.00
C6       0.57956    0.24241    1.12046   1.00
C6       0.58025    0.28005    1.10759   1.00
H3       0.57565    0.18803    1.08752   1.00
H3       0.57774    0.30300    1.04817   1.00
H3       0.58087    0.23287    1.15037   1.00
H3       0.58215    0.30575    1.12545   1.00
N1       0.46308    0.25857    0.91362   1.00
C6       0.45211    0.22154    0.90866   1.00
C6       0.43216    0.28073    0.90508   1.00
C6       0.41359    0.21995    0.89730   1.00
C6       0.40090    0.25759    0.89503   1.00
H3       0.47086    0.19700    0.91331   1.00
H3       0.43207    0.31197    0.90636   1.00
H3       0.39663    0.19425    0.89136   1.00
H3       0.37208    0.26713    0.88691   1.00
C4       0.49985    0.49988    0.77085   1.00
C4       0.50015    0.50012    0.72915   1.00
C3a      0.46427    0.50058    0.79254   1.00
C3       0.49318    0.46570    0.70768   1.00
C3       0.53495    0.49880    0.79232   1.00
C3a      0.50759    0.53492    0.70746   1.00
C2       0.50005    0.49993    0.85512   1.00
C2       0.50005    0.49994    0.64488   1.00
C3       0.46495    0.50068    0.83405   1.00
C3       0.49303    0.46568    0.66637   1.00
C3       0.53501    0.49895    0.83363   1.00
C3       0.50735    0.53428    0.66595   1.00
C5       0.42506    0.50187    0.77228   1.00
H1       0.48743    0.43871    0.72309   1.00
H1       0.43784    0.50142    0.85021   1.00
H1       0.48733    0.43869    0.65099   1.00
H1       0.56258    0.49833    0.84901   1.00
H1       0.51282    0.56084    0.64979   1.00
C5       0.51530    0.57339    0.72772   1.00
H1       0.56254    0.49824    0.77691   1.00
H2       0.50920    0.59791    0.70744   1.00
H2       0.49499    0.57716    0.75269   1.00
H2       0.40257    0.51341    0.79256   1.00
H2       0.42603    0.52250    0.74731   1.00
N1       0.55568    0.57566    0.74143   1.00
C6       0.58773    0.57692    0.71927   1.00
C6       0.56749    0.57799    0.77846   1.00
C6       0.62046    0.57956    0.74241   1.00
C6       0.60759    0.58025    0.78005   1.00
H3       0.58752    0.57565    0.68803   1.00
H3       0.54817    0.57774    0.80300   1.00
H3       0.65037    0.58087    0.73287   1.00
H3       0.62545    0.58215    0.80575   1.00
N1       0.41362    0.46308    0.75857   1.00
C6       0.40866    0.45211    0.72154   1.00
C6       0.40508    0.43216    0.78073   1.00
C6       0.39730    0.41359    0.71995   1.00
C6       0.39503    0.40090    0.75759   1.00
H3       0.41331    0.47086    0.69700   1.00
H3       0.40636    0.43207    0.81197   1.00
H3       0.39136    0.39663    0.69425   1.00
H3       0.38691    0.37208    0.76713   1.00
C4       0.49985    1.00012    0.72915   1.00
C4       0.50015    0.99988    0.77085   1.00
C3a      0.46427    0.99942    0.70746   1.00
C3       0.49318    1.03430    0.79232   1.00
C3       0.53495    1.00120    0.70768   1.00
C3a      0.50759    0.96508    0.79254   1.00
C2       0.50005    1.00007    0.64488   1.00
C2       0.50005    1.00006    0.85512   1.00
C3       0.46495    0.99932    0.66595   1.00
C3       0.49303    1.03432    0.83363   1.00
C3       0.53501    1.00105    0.66637   1.00
C3       0.50735    0.96572    0.83405   1.00
C5       0.42506    0.99813    0.72772   1.00
H1       0.48743    1.06129    0.77691   1.00
H1       0.43784    0.99858    0.64979   1.00
H1       0.48733    1.06131    0.84901   1.00
H1       0.56258    1.00167    0.65099   1.00
H1       0.51282    0.93916    0.85021   1.00
C5       0.51530    0.92661    0.77228   1.00
H1       0.56254    1.00176    0.72309   1.00
H2       0.50920    0.90209    0.79256   1.00
H2       0.49499    0.92284    0.74731   1.00
H2       0.40257    0.98659    0.70744   1.00
H2       0.42603    0.97750    0.75269   1.00
N1       0.55568    0.92434    0.75857   1.00
C6       0.58773    0.92308    0.78073   1.00
C6       0.56749    0.92201    0.72154   1.00
C6       0.62046    0.92044    0.75759   1.00
C6       0.60759    0.91975    0.71995   1.00
H3       0.58752    0.92435    0.81197   1.00
H3       0.54817    0.92226    0.69700   1.00
H3       0.65037    0.91913    0.76713   1.00
H3       0.62545    0.91785    0.69425   1.00
N1       0.41362    1.03692    0.74143   1.00
C6       0.40866    1.04789    0.77846   1.00
C6       0.40508    1.06784    0.71927   1.00
C6       0.39730    1.08641    0.78005   1.00
C6       0.39503    1.09910    0.74241   1.00
H3       0.41331    1.02914    0.80300   1.00
H3       0.40636    1.06793    0.68803   1.00
H3       0.39136    1.10337    0.80575   1.00
H3       0.38691    1.12792    0.73287   1.00
C4       0.50012    1.22915    0.49985   1.00
C4       0.49988    1.27085    0.50015   1.00
C3a      0.49942    1.20746    0.46427   1.00
C3       0.53430    1.29232    0.49318   1.00
C3       0.50120    1.20768    0.53495   1.00
C3a      0.46508    1.29254    0.50759   1.00
C2       0.50007    1.14488    0.50005   1.00
C2       0.50006    1.35512    0.50005   1.00
C3       0.49932    1.16595    0.46495   1.00
C3       0.53432    1.33363    0.49303   1.00
C3       0.50105    1.16637    0.53501   1.00
C3       0.46572    1.33405    0.50735   1.00
C5       0.49813    1.22772    0.42506   1.00
H1       0.56129    1.27691    0.48743   1.00
H1       0.49858    1.14979    0.43784   1.00
H1       0.56131    1.34901    0.48733   1.00
H1       0.50167    1.15099    0.56258   1.00
H1       0.43916    1.35021    0.51282   1.00
C5       0.42661    1.27228    0.51530   1.00
H1       0.50176    1.22309    0.56254   1.00
H2       0.40209    1.29256    0.50920   1.00
H2       0.42284    1.24731    0.49499   1.00
H2       0.48659    1.20744    0.40257   1.00
H2       0.47750    1.25269    0.42603   1.00
N1       0.42434    1.25857    0.55568   1.00
C6       0.42308    1.28073    0.58773   1.00
C6       0.42201    1.22154    0.56749   1.00
C6       0.42044    1.25759    0.62046   1.00
C6       0.41975    1.21995    0.60759   1.00
H3       0.42435    1.31197    0.58752   1.00
H3       0.42226    1.19700    0.54817   1.00
H3       0.41913    1.26713    0.65037   1.00
H3       0.41785    1.19425    0.62545   1.00
N1       0.53692    1.24143    0.41362   1.00
C6       0.54789    1.27846    0.40866   1.00
C6       0.56784    1.21927    0.40508   1.00
C6       0.58641    1.28005    0.39730   1.00
C6       0.59910    1.24241    0.39503   1.00
H3       0.52914    1.30300    0.41331   1.00
H3       0.56793    1.18803    0.40636   1.00
H3       0.60337    1.30575    0.39136   1.00
H3       0.62792    1.23287    0.38691   1.00
C4       0.27085    0.99985    0.49988   1.00
C4       0.22915    1.00015    0.50012   1.00
C3a      0.29254    0.96427    0.50058   1.00
C3       0.20768    0.99318    0.46570   1.00
C3       0.29232    1.03495    0.49880   1.00
C3a      0.20746    1.00759    0.53492   1.00
C2       0.35512    1.00005    0.49993   1.00
C2       0.14488    1.00005    0.49994   1.00
C3       0.33405    0.96495    0.50068   1.00
C3       0.16637    0.99303    0.46568   1.00
C3       0.33363    1.03501    0.49895   1.00
C3       0.16595    1.00735    0.53428   1.00
C5       0.27228    0.92506    0.50187   1.00
H1       0.22309    0.98743    0.43871   1.00
H1       0.35021    0.93784    0.50142   1.00
H1       0.15099    0.98733    0.43869   1.00
H1       0.34901    1.06258    0.49833   1.00
H1       0.14979    1.01282    0.56084   1.00
C5       0.22772    1.01530    0.57339   1.00
H1       0.27691    1.06254    0.49824   1.00
H2       0.20744    1.00920    0.59791   1.00
H2       0.25269    0.99499    0.57716   1.00
H2       0.29256    0.90257    0.51341   1.00
H2       0.24731    0.92603    0.52250   1.00
N1       0.24143    1.05568    0.57566   1.00
C6       0.21927    1.08773    0.57692   1.00
C6       0.27846    1.06749    0.57799   1.00
C6       0.24241    1.12046    0.57956   1.00
C6       0.28005    1.10759    0.58025   1.00
H3       0.18803    1.08752    0.57565   1.00
H3       0.30300    1.04817    0.57774   1.00
H3       0.23287    1.15037    0.58087   1.00
H3       0.30575    1.12545    0.58215   1.00
N1       0.25857    0.91362    0.46308   1.00
C6       0.22154    0.90866    0.45211   1.00
C6       0.28073    0.90508    0.43216   1.00
C6       0.21995    0.89730    0.41359   1.00
C6       0.25759    0.89503    0.40090   1.00
H3       0.19700    0.91331    0.47086   1.00
H3       0.31197    0.90636    0.43207   1.00
H3       0.19425    0.89136    0.39663   1.00
H3       0.26713    0.88691    0.37208   1.00
C4       0.72915    0.99985    0.50012   1.00
C4       0.77085    1.00015    0.49988   1.00
C3a      0.70746    0.96427    0.49942   1.00
C3       0.79232    0.99318    0.53430   1.00
C3       0.70768    1.03495    0.50120   1.00
C3a      0.79254    1.00759    0.46508   1.00
C2       0.64488    1.00005    0.50007   1.00
C2       0.85512    1.00005    0.50006   1.00
C3       0.66595    0.96495    0.49932   1.00
C3       0.83363    0.99303    0.53432   1.00
C3       0.66637    1.03501    0.50105   1.00
C3       0.83405    1.00735    0.46572   1.00
C5       0.72772    0.92506    0.49813   1.00
H1       0.77691    0.98743    0.56129   1.00
H1       0.64979    0.93784    0.49858   1.00
H1       0.84901    0.98733    0.56131   1.00
H1       0.65099    1.06258    0.50167   1.00
H1       0.85021    1.01282    0.43916   1.00
C5       0.77228    1.01530    0.42661   1.00
H1       0.72309    1.06254    0.50176   1.00
H2       0.79256    1.00920    0.40209   1.00
H2       0.74731    0.99499    0.42284   1.00
H2       0.70744    0.90257    0.48659   1.00
H2       0.75269    0.92603    0.47750   1.00
N1       0.75857    1.05568    0.42434   1.00
C6       0.78073    1.08773    0.42308   1.00
C6       0.72154    1.06749    0.42201   1.00
C6       0.75759    1.12046    0.42044   1.00
C6       0.71995    1.10759    0.41975   1.00
H3       0.81197    1.08752    0.42435   1.00
H3       0.69700    1.04817    0.42226   1.00
H3       0.76713    1.15037    0.41913   1.00
H3       0.69425    1.12545    0.41785   1.00
N1       0.74143    0.91362    0.53692   1.00
C6       0.77846    0.90866    0.54789   1.00
C6       0.71927    0.90508    0.56784   1.00
C6       0.78005    0.89730    0.58641   1.00
C6       0.74241    0.89503    0.59910   1.00
H3       0.80300    0.91331    0.52914   1.00
H3       0.68803    0.90636    0.56793   1.00
H3       0.80575    0.89136    0.60337   1.00
H3       0.73287    0.88691    0.62792   1.00
C4       0.49988    0.77085    0.49985   1.00
C4       0.50012    0.72915    0.50015   1.00
C3a      0.50058    0.79254    0.46427   1.00
C3       0.46570    0.70768    0.49318   1.00
C3       0.49880    0.79232    0.53495   1.00
C3a      0.53492    0.70746    0.50759   1.00
C2       0.49993    0.85512    0.50005   1.00
C2       0.49994    0.64488    0.50005   1.00
C3       0.50068    0.83405    0.46495   1.00
C3       0.46568    0.66637    0.49303   1.00
C3       0.49895    0.83363    0.53501   1.00
C3       0.53428    0.66595    0.50735   1.00
C5       0.50187    0.77228    0.42506   1.00
H1       0.43871    0.72309    0.48743   1.00
H1       0.50142    0.85021    0.43784   1.00
H1       0.43869    0.65099    0.48733   1.00
H1       0.49833    0.84901    0.56258   1.00
H1       0.56084    0.64979    0.51282   1.00
C5       0.57339    0.72772    0.51530   1.00
H1       0.49824    0.77691    0.56254   1.00
H2       0.59791    0.70744    0.50920   1.00
H2       0.57716    0.75269    0.49499   1.00
H2       0.51341    0.79256    0.40257   1.00
H2       0.52250    0.74731    0.42603   1.00
N1       0.57566    0.74143    0.55568   1.00
C6       0.57692    0.71927    0.58773   1.00
C6       0.57799    0.77846    0.56749   1.00
C6       0.57956    0.74241    0.62046   1.00
C6       0.58025    0.78005    0.60759   1.00
H3       0.57565    0.68803    0.58752   1.00
H3       0.57774    0.80300    0.54817   1.00
H3       0.58087    0.73287    0.65037   1.00
H3       0.58215    0.80575    0.62545   1.00
N1       0.46308    0.75857    0.41362   1.00
C6       0.45211    0.72154    0.40866   1.00
C6       0.43216    0.78073    0.40508   1.00
C6       0.41359    0.71995    0.39730   1.00
C6       0.40090    0.75759    0.39503   1.00
H3       0.47086    0.69700    0.41331   1.00
H3       0.43207    0.81197    0.40636   1.00
H3       0.39663    0.69425    0.39136   1.00
H3       0.37208    0.76713    0.38691   1.00
C4       0.49985    0.99988    0.27085   1.00
C4       0.50015    1.00012    0.22915   1.00
C3a      0.46427    1.00058    0.29254   1.00
C3       0.49318    0.96570    0.20768   1.00
C3       0.53495    0.99880    0.29232   1.00
C3a      0.50759    1.03492    0.20746   1.00
C2       0.50005    0.99993    0.35512   1.00
C2       0.50005    0.99994    0.14488   1.00
C3       0.46495    1.00068    0.33405   1.00
C3       0.49303    0.96568    0.16637   1.00
C3       0.53501    0.99895    0.33363   1.00
C3       0.50735    1.03428    0.16595   1.00
C5       0.42506    1.00187    0.27228   1.00
H1       0.48743    0.93871    0.22309   1.00
H1       0.43784    1.00142    0.35021   1.00
H1       0.48733    0.93869    0.15099   1.00
H1       0.56258    0.99833    0.34901   1.00
H1       0.51282    1.06084    0.14979   1.00
C5       0.51530    1.07339    0.22772   1.00
H1       0.56254    0.99824    0.27691   1.00
H2       0.50920    1.09791    0.20744   1.00
H2       0.49499    1.07716    0.25269   1.00
H2       0.40257    1.01341    0.29256   1.00
H2       0.42603    1.02250    0.24731   1.00
N1       0.55568    1.07566    0.24143   1.00
C6       0.58773    1.07692    0.21927   1.00
C6       0.56749    1.07799    0.27846   1.00
C6       0.62046    1.07956    0.24241   1.00
C6       0.60759    1.08025    0.28005   1.00
H3       0.58752    1.07565    0.18803   1.00
H3       0.54817    1.07774    0.30300   1.00
H3       0.65037    1.08087    0.23287   1.00
H3       0.62545    1.08215    0.30575   1.00
N1       0.41362    0.96308    0.25857   1.00
C6       0.40866    0.95211    0.22154   1.00
C6       0.40508    0.93216    0.28073   1.00
C6       0.39730    0.91359    0.21995   1.00
C6       0.39503    0.90090    0.25759   1.00
H3       0.41331    0.97086    0.19700   1.00
H3       0.40636    0.93207    0.31197   1.00
H3       0.39136    0.89663    0.19425   1.00
H3       0.38691    0.87208    0.26713   1.00
C4       0.99985    0.50012    0.72915   1.00
C4       1.00015    0.49988    0.77085   1.00
C3a      0.96427    0.49942    0.70746   1.00
C3       0.99318    0.53430    0.79232   1.00
C3       1.03495    0.50120    0.70768   1.00
C3a      1.00759    0.46508    0.79254   1.00
C2       1.00005    0.50007    0.64488   1.00
C2       1.00005    0.50006    0.85512   1.00
C3       0.96495    0.49932    0.66595   1.00
C3       0.99303    0.53432    0.83363   1.00
C3       1.03501    0.50105    0.66637   1.00
C3       1.00735    0.46572    0.83405   1.00
C5       0.92506    0.49813    0.72772   1.00
H1       0.98743    0.56129    0.77691   1.00
H1       0.93784    0.49858    0.64979   1.00
H1       0.98733    0.56131    0.84901   1.00
H1       1.06258    0.50167    0.65099   1.00
H1       1.01282    0.43916    0.85021   1.00
C5       1.01530    0.42661    0.77228   1.00
H1       1.06254    0.50176    0.72309   1.00
H2       1.00920    0.40209    0.79256   1.00
H2       0.99499    0.42284    0.74731   1.00
H2       0.90257    0.48659    0.70744   1.00
H2       0.92603    0.47750    0.75269   1.00
N1       1.05568    0.42434    0.75857   1.00
C6       1.08773    0.42308    0.78073   1.00
C6       1.06749    0.42201    0.72154   1.00
C6       1.12046    0.42044    0.75759   1.00
C6       1.10759    0.41975    0.71995   1.00
H3       1.08752    0.42435    0.81197   1.00
H3       1.04817    0.42226    0.69700   1.00
H3       1.15037    0.41913    0.76713   1.00
H3       1.12545    0.41785    0.69425   1.00
N1       0.91362    0.53692    0.74143   1.00
C6       0.90866    0.54789    0.77846   1.00
C6       0.90508    0.56784    0.71927   1.00
C6       0.89730    0.58641    0.78005   1.00
C6       0.89503    0.59910    0.74241   1.00
H3       0.91331    0.52914    0.80300   1.00
H3       0.90636    0.56793    0.68803   1.00
H3       0.89136    0.60337    0.80575   1.00
H3       0.88691    0.62792    0.73287   1.00
C4       1.00012    0.72915    0.49985   1.00
C4       0.99988    0.77085    0.50015   1.00
C3a      0.99942    0.70746    0.46427   1.00
C3       1.03430    0.79232    0.49318   1.00
C3       1.00120    0.70768    0.53495   1.00
C3a      0.96508    0.79254    0.50759   1.00
C2       1.00007    0.64488    0.50005   1.00
C2       1.00006    0.85512    0.50005   1.00
C3       0.99932    0.66595    0.46495   1.00
C3       1.03432    0.83363    0.49303   1.00
C3       1.00105    0.66637    0.53501   1.00
C3       0.96572    0.83405    0.50735   1.00
C5       0.99813    0.72772    0.42506   1.00
H1       1.06129    0.77691    0.48743   1.00
H1       0.99858    0.64979    0.43784   1.00
H1       1.06131    0.84901    0.48733   1.00
H1       1.00167    0.65099    0.56258   1.00
H1       0.93916    0.85021    0.51282   1.00
C5       0.92661    0.77228    0.51530   1.00
H1       1.00176    0.72309    0.56254   1.00
H2       0.90209    0.79256    0.50920   1.00
H2       0.92284    0.74731    0.49499   1.00
H2       0.98659    0.70744    0.40257   1.00
H2       0.97750    0.75269    0.42603   1.00
N1       0.92434    0.75857    0.55568   1.00
C6       0.92308    0.78073    0.58773   1.00
C6       0.92201    0.72154    0.56749   1.00
C6       0.92044    0.75759    0.62046   1.00
C6       0.91975    0.71995    0.60759   1.00
H3       0.92435    0.81197    0.58752   1.00
H3       0.92226    0.69700    0.54817   1.00
H3       0.91913    0.76713    0.65037   1.00
H3       0.91785    0.69425    0.62545   1.00
N1       1.03692    0.74143    0.41362   1.00
C6       1.04789    0.77846    0.40866   1.00
C6       1.06784    0.71927    0.40508   1.00
C6       1.08641    0.78005    0.39730   1.00
C6       1.09910    0.74241    0.39503   1.00
H3       1.02914    0.80300    0.41331   1.00
H3       1.06793    0.68803    0.40636   1.00
H3       1.10337    0.80575    0.39136   1.00
H3       1.12792    0.73287    0.38691   1.00
C4       0.77085    0.49985    0.49988   1.00
C4       0.72915    0.50015    0.50012   1.00
C3a      0.79254    0.46427    0.50058   1.00
C3       0.70768    0.49318    0.46570   1.00
C3       0.79232    0.53495    0.49880   1.00
C3a      0.70746    0.50759    0.53492   1.00
C2       0.85512    0.50005    0.49993   1.00
C2       0.64488    0.50005    0.49994   1.00
C3       0.83405    0.46495    0.50068   1.00
C3       0.66637    0.49303    0.46568   1.00
C3       0.83363    0.53501    0.49895   1.00
C3       0.66595    0.50735    0.53428   1.00
C5       0.77228    0.42506    0.50187   1.00
H1       0.72309    0.48743    0.43871   1.00
H1       0.85021    0.43784    0.50142   1.00
H1       0.65099    0.48733    0.43869   1.00
H1       0.84901    0.56258    0.49833   1.00
H1       0.64979    0.51282    0.56084   1.00
C5       0.72772    0.51530    0.57339   1.00
H1       0.77691    0.56254    0.49824   1.00
H2       0.70744    0.50920    0.59791   1.00
H2       0.75269    0.49499    0.57716   1.00
H2       0.79256    0.40257    0.51341   1.00
H2       0.74731    0.42603    0.52250   1.00
N1       0.74143    0.55568    0.57566   1.00
C6       0.71927    0.58773    0.57692   1.00
C6       0.77846    0.56749    0.57799   1.00
C6       0.74241    0.62046    0.57956   1.00
C6       0.78005    0.60759    0.58025   1.00
H3       0.68803    0.58752    0.57565   1.00
H3       0.80300    0.54817    0.57774   1.00
H3       0.73287    0.65037    0.58087   1.00
H3       0.80575    0.62545    0.58215   1.00
N1       0.75857    0.41362    0.46308   1.00
C6       0.72154    0.40866    0.45211   1.00
C6       0.78073    0.40508    0.43216   1.00
C6       0.71995    0.39730    0.41359   1.00
C6       0.75759    0.39503    0.40090   1.00
H3       0.69700    0.41331    0.47086   1.00
H3       0.81197    0.40636    0.43207   1.00
H3       0.69425    0.39136    0.39663   1.00
H3       0.76713    0.38691    0.37208   1.00
C4       1.22915    0.49985    0.50012   1.00
C4       1.27085    0.50015    0.49988   1.00
C3a      1.20746    0.46427    0.49942   1.00
C3       1.29232    0.49318    0.53430   1.00
C3       1.20768    0.53495    0.50120   1.00
C3a      1.29254    0.50759    0.46508   1.00
C2       1.14488    0.50005    0.50007   1.00
C2       1.35512    0.50005    0.50006   1.00
C3       1.16595    0.46495    0.49932   1.00
C3       1.33363    0.49303    0.53432   1.00
C3       1.16637    0.53501    0.50105   1.00
C3       1.33405    0.50735    0.46572   1.00
C5       1.22772    0.42506    0.49813   1.00
H1       1.27691    0.48743    0.56129   1.00
H1       1.14979    0.43784    0.49858   1.00
H1       1.34901    0.48733    0.56131   1.00
H1       1.15099    0.56258    0.50167   1.00
H1       1.35021    0.51282    0.43916   1.00
C5       1.27228    0.51530    0.42661   1.00
H1       1.22309    0.56254    0.50176   1.00
H2       1.29256    0.50920    0.40209   1.00
H2       1.24731    0.49499    0.42284   1.00
H2       1.20744    0.40257    0.48659   1.00
H2       1.25269    0.42603    0.47750   1.00
N1       1.25857    0.55568    0.42434   1.00
C6       1.28073    0.58773    0.42308   1.00
C6       1.22154    0.56749    0.42201   1.00
C6       1.25759    0.62046    0.42044   1.00
C6       1.21995    0.60759    0.41975   1.00
H3       1.31197    0.58752    0.42435   1.00
H3       1.19700    0.54817    0.42226   1.00
H3       1.26713    0.65037    0.41913   1.00
H3       1.19425    0.62545    0.41785   1.00
N1       1.24143    0.41362    0.53692   1.00
C6       1.27846    0.40866    0.54789   1.00
C6       1.21927    0.40508    0.56784   1.00
C6       1.28005    0.39730    0.58641   1.00
C6       1.24241    0.39503    0.59910   1.00
H3       1.30300    0.41331    0.52914   1.00
H3       1.18803    0.40636    0.56793   1.00
H3       1.30575    0.39136    0.60337   1.00
H3       1.23287    0.38691    0.62792   1.00
C4       0.99988    0.27085    0.49985   1.00
C4       1.00012    0.22915    0.50015   1.00
C3a      1.00058    0.29254    0.46427   1.00
C3       0.96570    0.20768    0.49318   1.00
C3       0.99880    0.29232    0.53495   1.00
C3a      1.03492    0.20746    0.50759   1.00
C2       0.99993    0.35512    0.50005   1.00
C2       0.99994    0.14488    0.50005   1.00
C3       1.00068    0.33405    0.46495   1.00
C3       0.96568    0.16637    0.49303   1.00
C3       0.99895    0.33363    0.53501   1.00
C3       1.03428    0.16595    0.50735   1.00
C5       1.00187    0.27228    0.42506   1.00
H1       0.93871    0.22309    0.48743   1.00
H1       1.00142    0.35021    0.43784   1.00
H1       0.93869    0.15099    0.48733   1.00
H1       0.99833    0.34901    0.56258   1.00
H1       1.06084    0.14979    0.51282   1.00
C5       1.07339    0.22772    0.51530   1.00
H1       0.99824    0.27691    0.56254   1.00
H2       1.09791    0.20744    0.50920   1.00
H2       1.07716    0.25269    0.49499   1.00
H2       1.01341    0.29256    0.40257   1.00
H2       1.02250    0.24731    0.42603   1.00
N1       1.07566    0.24143    0.55568   1.00
C6       1.07692    0.21927    0.58773   1.00
C6       1.07799    0.27846    0.56749   1.00
C6       1.07956    0.24241    0.62046   1.00
C6       1.08025    0.28005    0.60759   1.00
H3       1.07565    0.18803    0.58752   1.00
H3       1.07774    0.30300    0.54817   1.00
H3       1.08087    0.23287    0.65037   1.00
H3       1.08215    0.30575    0.62545   1.00
N1       0.96308    0.25857    0.41362   1.00
C6       0.95211    0.22154    0.40866   1.00
C6       0.93216    0.28073    0.40508   1.00
C6       0.91359    0.21995    0.39730   1.00
C6       0.90090    0.25759    0.39503   1.00
H3       0.97086    0.19700    0.41331   1.00
H3       0.93207    0.31197    0.40636   1.00
H3       0.89663    0.19425    0.39136   1.00
H3       0.87208    0.26713    0.38691   1.00
C4       0.99985    0.49988    0.27085   1.00
C4       1.00015    0.50012    0.22915   1.00
C3a      0.96427    0.50058    0.29254   1.00
C3       0.99318    0.46570    0.20768   1.00
C3       1.03495    0.49880    0.29232   1.00
C3a      1.00759    0.53492    0.20746   1.00
C2       1.00005    0.49993    0.35512   1.00
C2       1.00005    0.49994    0.14488   1.00
C3       0.96495    0.50068    0.33405   1.00
C3       0.99303    0.46568    0.16637   1.00
C3       1.03501    0.49895    0.33363   1.00
C3       1.00735    0.53428    0.16595   1.00
C5       0.92506    0.50187    0.27228   1.00
H1       0.98743    0.43871    0.22309   1.00
H1       0.93784    0.50142    0.35021   1.00
H1       0.98733    0.43869    0.15099   1.00
H1       1.06258    0.49833    0.34901   1.00
H1       1.01282    0.56084    0.14979   1.00
C5       1.01530    0.57339    0.22772   1.00
H1       1.06254    0.49824    0.27691   1.00
H2       1.00920    0.59791    0.20744   1.00
H2       0.99499    0.57716    0.25269   1.00
H2       0.90257    0.51341    0.29256   1.00
H2       0.92603    0.52250    0.24731   1.00
N1       1.05568    0.57566    0.24143   1.00
C6       1.08773    0.57692    0.21927   1.00
C6       1.06749    0.57799    0.27846   1.00
C6       1.12046    0.57956    0.24241   1.00
C6       1.10759    0.58025    0.28005   1.00
H3       1.08752    0.57565    0.18803   1.00
H3       1.04817    0.57774    0.30300   1.00
H3       1.15037    0.58087    0.23287   1.00
H3       1.12545    0.58215    0.30575   1.00
N1       0.91362    0.46308    0.25857   1.00
C6       0.90866    0.45211    0.22154   1.00
C6       0.90508    0.43216    0.28073   1.00
C6       0.89730    0.41359    0.21995   1.00
C6       0.89503    0.40090    0.25759   1.00
H3       0.91331    0.47086    0.19700   1.00
H3       0.90636    0.43207    0.31197   1.00
H3       0.89136    0.39663    0.19425   1.00
H3       0.88691    0.37208    0.26713   1.00
