data_IRMOF10_SG202_interpen_Ligand3lp_label_a.

_audit_creation_method             'generated by an auxiliary program of Tobunporous'

_symmetry_space_group_name_H-M     'P 1'
_symmetry_Int_Tables_number        1
_symmetry_cell_setting             triclinic

_cell_length_a                    34.2800
_cell_length_b                    34.2800
_cell_length_c                    34.2800
_cell_angle_alpha                 90.0000
_cell_angle_beta                  90.0000
_cell_angle_gamma                 90.0000

loop_
_atom_site_label
_atom_site_fract_x
_atom_site_fract_y
_atom_site_fract_z
_atom_site_occupancy
O1       0.75000    0.75000    0.75000   1.00
Zn1      0.71720    0.78280    0.78280   1.00
Zn1      0.78280    0.71720    0.78280   1.00
Zn1      0.78280    0.78280    0.71720   1.00
Zn1      0.71720    0.71720    0.71720   1.00
O2       0.72650    0.77350    0.83820   1.00
O2       0.72650    0.83820    0.77350   1.00
O2       0.66180    0.77350    0.77350   1.00
O2       0.77350    0.72650    0.83820   1.00
O2       0.83820    0.72650    0.77350   1.00
O2       0.77350    0.66180    0.77350   1.00
O2       0.77350    0.83820    0.72650   1.00
O2       0.83820    0.77350    0.72650   1.00
O2       0.77350    0.77350    0.66180   1.00
O2       0.66180    0.72650    0.72650   1.00
O2       0.72650    0.66180    0.72650   1.00
O2       0.72650    0.72650    0.66180   1.00
C1       0.75000    0.75000    0.85520   1.00
C1       0.75000    0.85520    0.75000   1.00
C1       0.64480    0.75000    0.75000   1.00
C1       0.85520    0.75000    0.75000   1.00
C1       0.75000    0.64480    0.75000   1.00
C1       0.75000    0.75000    0.64480   1.00
O1       0.25000    0.25000    0.75000   1.00
Zn1      0.21720    0.28280    0.78280   1.00
Zn1      0.28280    0.21720    0.78280   1.00
Zn1      0.28280    0.28280    0.71720   1.00
Zn1      0.21720    0.21720    0.71720   1.00
O2       0.22650    0.27350    0.83820   1.00
O2       0.22650    0.33820    0.77350   1.00
O2       0.16180    0.27350    0.77350   1.00
O2       0.27350    0.22650    0.83820   1.00
O2       0.33820    0.22650    0.77350   1.00
O2       0.27350    0.16180    0.77350   1.00
O2       0.27350    0.33820    0.72650   1.00
O2       0.33820    0.27350    0.72650   1.00
O2       0.27350    0.27350    0.66180   1.00
O2       0.16180    0.22650    0.72650   1.00
O2       0.22650    0.16180    0.72650   1.00
O2       0.22650    0.22650    0.66180   1.00
C1       0.25000    0.25000    0.85520   1.00
C1       0.25000    0.35520    0.75000   1.00
C1       0.14480    0.25000    0.75000   1.00
C1       0.35520    0.25000    0.75000   1.00
C1       0.25000    0.14480    0.75000   1.00
C1       0.25000    0.25000    0.64480   1.00
O1       0.25000    0.75000    0.25000   1.00
Zn1      0.21720    0.78280    0.28280   1.00
Zn1      0.28280    0.71720    0.28280   1.00
Zn1      0.28280    0.78280    0.21720   1.00
Zn1      0.21720    0.71720    0.21720   1.00
O2       0.22650    0.77350    0.33820   1.00
O2       0.22650    0.83820    0.27350   1.00
O2       0.16180    0.77350    0.27350   1.00
O2       0.27350    0.72650    0.33820   1.00
O2       0.33820    0.72650    0.27350   1.00
O2       0.27350    0.66180    0.27350   1.00
O2       0.27350    0.83820    0.22650   1.00
O2       0.33820    0.77350    0.22650   1.00
O2       0.27350    0.77350    0.16180   1.00
O2       0.16180    0.72650    0.22650   1.00
O2       0.22650    0.66180    0.22650   1.00
O2       0.22650    0.72650    0.16180   1.00
C1       0.25000    0.75000    0.35520   1.00
C1       0.25000    0.85520    0.25000   1.00
C1       0.14480    0.75000    0.25000   1.00
C1       0.35520    0.75000    0.25000   1.00
C1       0.25000    0.64480    0.25000   1.00
C1       0.25000    0.75000    0.14480   1.00
O1       0.75000    0.25000    0.25000   1.00
Zn1      0.71720    0.28280    0.28280   1.00
Zn1      0.78280    0.21720    0.28280   1.00
Zn1      0.78280    0.28280    0.21720   1.00
Zn1      0.71720    0.21720    0.21720   1.00
O2       0.72650    0.27350    0.33820   1.00
O2       0.72650    0.33820    0.27350   1.00
O2       0.66180    0.27350    0.27350   1.00
O2       0.77350    0.22650    0.33820   1.00
O2       0.83820    0.22650    0.27350   1.00
O2       0.77350    0.16180    0.27350   1.00
O2       0.77350    0.33820    0.22650   1.00
O2       0.83820    0.27350    0.22650   1.00
O2       0.77350    0.27350    0.16180   1.00
O2       0.66180    0.22650    0.22650   1.00
O2       0.72650    0.16180    0.22650   1.00
O2       0.72650    0.22650    0.16180   1.00
C1       0.75000    0.25000    0.35520   1.00
C1       0.75000    0.35520    0.25000   1.00
C1       0.64480    0.25000    0.25000   1.00
C1       0.85520    0.25000    0.25000   1.00
C1       0.75000    0.14480    0.25000   1.00
C1       0.75000    0.25000    0.14480   1.00
O1       0.25000    0.25000    0.25000   1.00
Zn1      0.28280    0.21720    0.21720   1.00
Zn1      0.21720    0.28280    0.21720   1.00
Zn1      0.21720    0.21720    0.28280   1.00
Zn1      0.28280    0.28280    0.28280   1.00
O2       0.27350    0.22650    0.16180   1.00
O2       0.27350    0.16180    0.22650   1.00
O2       0.33820    0.22650    0.22650   1.00
O2       0.22650    0.27350    0.16180   1.00
O2       0.16180    0.27350    0.22650   1.00
O2       0.22650    0.33820    0.22650   1.00
O2       0.22650    0.16180    0.27350   1.00
O2       0.16180    0.22650    0.27350   1.00
O2       0.22650    0.22650    0.33820   1.00
O2       0.33820    0.27350    0.27350   1.00
O2       0.27350    0.33820    0.27350   1.00
O2       0.27350    0.27350    0.33820   1.00
C1       0.25000    0.25000    0.14480   1.00
C1       0.25000    0.14480    0.25000   1.00
C1       0.35520    0.25000    0.25000   1.00
C1       0.14480    0.25000    0.25000   1.00
C1       0.25000    0.35520    0.25000   1.00
C1       0.25000    0.25000    0.35520   1.00
O1       0.75000    0.75000    0.25000   1.00
Zn1      0.78280    0.71720    0.21720   1.00
Zn1      0.71720    0.78280    0.21720   1.00
Zn1      0.71720    0.71720    0.28280   1.00
Zn1      0.78280    0.78280    0.28280   1.00
O2       0.77350    0.72650    0.16180   1.00
O2       0.77350    0.66180    0.22650   1.00
O2       0.83820    0.72650    0.22650   1.00
O2       0.72650    0.77350    0.16180   1.00
O2       0.66180    0.77350    0.22650   1.00
O2       0.72650    0.83820    0.22650   1.00
O2       0.72650    0.66180    0.27350   1.00
O2       0.66180    0.72650    0.27350   1.00
O2       0.72650    0.72650    0.33820   1.00
O2       0.83820    0.77350    0.27350   1.00
O2       0.77350    0.83820    0.27350   1.00
O2       0.77350    0.77350    0.33820   1.00
C1       0.75000    0.75000    0.14480   1.00
C1       0.75000    0.64480    0.25000   1.00
C1       0.85520    0.75000    0.25000   1.00
C1       0.64480    0.75000    0.25000   1.00
C1       0.75000    0.85520    0.25000   1.00
C1       0.75000    0.75000    0.35520   1.00
O1       0.75000    0.25000    0.75000   1.00
Zn1      0.78280    0.21720    0.71720   1.00
Zn1      0.71720    0.28280    0.71720   1.00
Zn1      0.71720    0.21720    0.78280   1.00
Zn1      0.78280    0.28280    0.78280   1.00
O2       0.77350    0.22650    0.66180   1.00
O2       0.77350    0.16180    0.72650   1.00
O2       0.83820    0.22650    0.72650   1.00
O2       0.72650    0.27350    0.66180   1.00
O2       0.66180    0.27350    0.72650   1.00
O2       0.72650    0.33820    0.72650   1.00
O2       0.72650    0.16180    0.77350   1.00
O2       0.66180    0.22650    0.77350   1.00
O2       0.72650    0.22650    0.83820   1.00
O2       0.83820    0.27350    0.77350   1.00
O2       0.77350    0.33820    0.77350   1.00
O2       0.77350    0.27350    0.83820   1.00
C1       0.75000    0.25000    0.64480   1.00
C1       0.75000    0.14480    0.75000   1.00
C1       0.85520    0.25000    0.75000   1.00
C1       0.64480    0.25000    0.75000   1.00
C1       0.75000    0.35520    0.75000   1.00
C1       0.75000    0.25000    0.85520   1.00
O1       0.25000    0.75000    0.75000   1.00
Zn1      0.28280    0.71720    0.71720   1.00
Zn1      0.21720    0.78280    0.71720   1.00
Zn1      0.21720    0.71720    0.78280   1.00
Zn1      0.28280    0.78280    0.78280   1.00
O2       0.27350    0.72650    0.66180   1.00
O2       0.27350    0.66180    0.72650   1.00
O2       0.33820    0.72650    0.72650   1.00
O2       0.22650    0.77350    0.66180   1.00
O2       0.16180    0.77350    0.72650   1.00
O2       0.22650    0.83820    0.72650   1.00
O2       0.22650    0.66180    0.77350   1.00
O2       0.16180    0.72650    0.77350   1.00
O2       0.22650    0.72650    0.83820   1.00
O2       0.33820    0.77350    0.77350   1.00
O2       0.27350    0.83820    0.77350   1.00
O2       0.27350    0.77350    0.83820   1.00
C1       0.25000    0.75000    0.64480   1.00
C1       0.25000    0.64480    0.75000   1.00
C1       0.35520    0.75000    0.75000   1.00
C1       0.14480    0.75000    0.75000   1.00
C1       0.25000    0.85520    0.75000   1.00
C1       0.25000    0.75000    0.85520   1.00
O1       1.00000    1.00000    1.00000   1.00
Zn1      0.96720    1.03280    1.03280   1.00
Zn1      1.03280    0.96720    1.03280   1.00
Zn1      1.03280    1.03280    0.96720   1.00
Zn1      0.96720    0.96720    0.96720   1.00
O2       0.97650    1.02350    1.08820   1.00
O2       0.97650    1.08820    1.02350   1.00
O2       0.91180    1.02350    1.02350   1.00
O2       1.02350    0.97650    1.08820   1.00
O2       1.08820    0.97650    1.02350   1.00
O2       1.02350    0.91180    1.02350   1.00
O2       1.02350    1.08820    0.97650   1.00
O2       1.08820    1.02350    0.97650   1.00
O2       1.02350    1.02350    0.91180   1.00
O2       0.91180    0.97650    0.97650   1.00
O2       0.97650    0.91180    0.97650   1.00
O2       0.97650    0.97650    0.91180   1.00
C1       1.00000    1.00000    1.10520   1.00
C1       1.00000    1.10520    1.00000   1.00
C1       0.89480    1.00000    1.00000   1.00
C1       1.10520    1.00000    1.00000   1.00
C1       1.00000    0.89480    1.00000   1.00
C1       1.00000    1.00000    0.89480   1.00
O1       0.50000    0.50000    1.00000   1.00
Zn1      0.46720    0.53280    1.03280   1.00
Zn1      0.53280    0.46720    1.03280   1.00
Zn1      0.53280    0.53280    0.96720   1.00
Zn1      0.46720    0.46720    0.96720   1.00
O2       0.47650    0.52350    1.08820   1.00
O2       0.47650    0.58820    1.02350   1.00
O2       0.41180    0.52350    1.02350   1.00
O2       0.52350    0.47650    1.08820   1.00
O2       0.58820    0.47650    1.02350   1.00
O2       0.52350    0.41180    1.02350   1.00
O2       0.52350    0.58820    0.97650   1.00
O2       0.58820    0.52350    0.97650   1.00
O2       0.52350    0.52350    0.91180   1.00
O2       0.41180    0.47650    0.97650   1.00
O2       0.47650    0.41180    0.97650   1.00
O2       0.47650    0.47650    0.91180   1.00
C1       0.50000    0.50000    1.10520   1.00
C1       0.50000    0.60520    1.00000   1.00
C1       0.39480    0.50000    1.00000   1.00
C1       0.60520    0.50000    1.00000   1.00
C1       0.50000    0.39480    1.00000   1.00
C1       0.50000    0.50000    0.89480   1.00
O1       0.50000    1.00000    0.50000   1.00
Zn1      0.46720    1.03280    0.53280   1.00
Zn1      0.53280    0.96720    0.53280   1.00
Zn1      0.53280    1.03280    0.46720   1.00
Zn1      0.46720    0.96720    0.46720   1.00
O2       0.47650    1.02350    0.58820   1.00
O2       0.47650    1.08820    0.52350   1.00
O2       0.41180    1.02350    0.52350   1.00
O2       0.52350    0.97650    0.58820   1.00
O2       0.58820    0.97650    0.52350   1.00
O2       0.52350    0.91180    0.52350   1.00
O2       0.52350    1.08820    0.47650   1.00
O2       0.58820    1.02350    0.47650   1.00
O2       0.52350    1.02350    0.41180   1.00
O2       0.41180    0.97650    0.47650   1.00
O2       0.47650    0.91180    0.47650   1.00
O2       0.47650    0.97650    0.41180   1.00
C1       0.50000    1.00000    0.60520   1.00
C1       0.50000    1.10520    0.50000   1.00
C1       0.39480    1.00000    0.50000   1.00
C1       0.60520    1.00000    0.50000   1.00
C1       0.50000    0.89480    0.50000   1.00
C1       0.50000    1.00000    0.39480   1.00
O1       1.00000    0.50000    0.50000   1.00
Zn1      0.96720    0.53280    0.53280   1.00
Zn1      1.03280    0.46720    0.53280   1.00
Zn1      1.03280    0.53280    0.46720   1.00
Zn1      0.96720    0.46720    0.46720   1.00
O2       0.97650    0.52350    0.58820   1.00
O2       0.97650    0.58820    0.52350   1.00
O2       0.91180    0.52350    0.52350   1.00
O2       1.02350    0.47650    0.58820   1.00
O2       1.08820    0.47650    0.52350   1.00
O2       1.02350    0.41180    0.52350   1.00
O2       1.02350    0.58820    0.47650   1.00
O2       1.08820    0.52350    0.47650   1.00
O2       1.02350    0.52350    0.41180   1.00
O2       0.91180    0.47650    0.47650   1.00
O2       0.97650    0.41180    0.47650   1.00
O2       0.97650    0.47650    0.41180   1.00
C1       1.00000    0.50000    0.60520   1.00
C1       1.00000    0.60520    0.50000   1.00
C1       0.89480    0.50000    0.50000   1.00
C1       1.10520    0.50000    0.50000   1.00
C1       1.00000    0.39480    0.50000   1.00
C1       1.00000    0.50000    0.39480   1.00
O1       0.50000    0.50000    0.50000   1.00
Zn1      0.53280    0.46720    0.46720   1.00
Zn1      0.46720    0.53280    0.46720   1.00
Zn1      0.46720    0.46720    0.53280   1.00
Zn1      0.53280    0.53280    0.53280   1.00
O2       0.52350    0.47650    0.41180   1.00
O2       0.52350    0.41180    0.47650   1.00
O2       0.58820    0.47650    0.47650   1.00
O2       0.47650    0.52350    0.41180   1.00
O2       0.41180    0.52350    0.47650   1.00
O2       0.47650    0.58820    0.47650   1.00
O2       0.47650    0.41180    0.52350   1.00
O2       0.41180    0.47650    0.52350   1.00
O2       0.47650    0.47650    0.58820   1.00
O2       0.58820    0.52350    0.52350   1.00
O2       0.52350    0.58820    0.52350   1.00
O2       0.52350    0.52350    0.58820   1.00
C1       0.50000    0.50000    0.39480   1.00
C1       0.50000    0.39480    0.50000   1.00
C1       0.60520    0.50000    0.50000   1.00
C1       0.39480    0.50000    0.50000   1.00
C1       0.50000    0.60520    0.50000   1.00
C1       0.50000    0.50000    0.60520   1.00
O1       1.00000    1.00000    0.50000   1.00
Zn1      1.03280    0.96720    0.46720   1.00
Zn1      0.96720    1.03280    0.46720   1.00
Zn1      0.96720    0.96720    0.53280   1.00
Zn1      1.03280    1.03280    0.53280   1.00
O2       1.02350    0.97650    0.41180   1.00
O2       1.02350    0.91180    0.47650   1.00
O2       1.08820    0.97650    0.47650   1.00
O2       0.97650    1.02350    0.41180   1.00
O2       0.91180    1.02350    0.47650   1.00
O2       0.97650    1.08820    0.47650   1.00
O2       0.97650    0.91180    0.52350   1.00
O2       0.91180    0.97650    0.52350   1.00
O2       0.97650    0.97650    0.58820   1.00
O2       1.08820    1.02350    0.52350   1.00
O2       1.02350    1.08820    0.52350   1.00
O2       1.02350    1.02350    0.58820   1.00
C1       1.00000    1.00000    0.39480   1.00
C1       1.00000    0.89480    0.50000   1.00
C1       1.10520    1.00000    0.50000   1.00
C1       0.89480    1.00000    0.50000   1.00
C1       1.00000    1.10520    0.50000   1.00
C1       1.00000    1.00000    0.60520   1.00
O1       1.00000    0.50000    1.00000   1.00
Zn1      1.03280    0.46720    0.96720   1.00
Zn1      0.96720    0.53280    0.96720   1.00
Zn1      0.96720    0.46720    1.03280   1.00
Zn1      1.03280    0.53280    1.03280   1.00
O2       1.02350    0.47650    0.91180   1.00
O2       1.02350    0.41180    0.97650   1.00
O2       1.08820    0.47650    0.97650   1.00
O2       0.97650    0.52350    0.91180   1.00
O2       0.91180    0.52350    0.97650   1.00
O2       0.97650    0.58820    0.97650   1.00
O2       0.97650    0.41180    1.02350   1.00
O2       0.91180    0.47650    1.02350   1.00
O2       0.97650    0.47650    1.08820   1.00
O2       1.08820    0.52350    1.02350   1.00
O2       1.02350    0.58820    1.02350   1.00
O2       1.02350    0.52350    1.08820   1.00
C1       1.00000    0.50000    0.89480   1.00
C1       1.00000    0.39480    1.00000   1.00
C1       1.10520    0.50000    1.00000   1.00
C1       0.89480    0.50000    1.00000   1.00
C1       1.00000    0.60520    1.00000   1.00
C1       1.00000    0.50000    1.10520   1.00
O1       0.50000    1.00000    1.00000   1.00
Zn1      0.53280    0.96720    0.96720   1.00
Zn1      0.46720    1.03280    0.96720   1.00
Zn1      0.46720    0.96720    1.03280   1.00
Zn1      0.53280    1.03280    1.03280   1.00
O2       0.52350    0.97650    0.91180   1.00
O2       0.52350    0.91180    0.97650   1.00
O2       0.58820    0.97650    0.97650   1.00
O2       0.47650    1.02350    0.91180   1.00
O2       0.41180    1.02350    0.97650   1.00
O2       0.47650    1.08820    0.97650   1.00
O2       0.47650    0.91180    1.02350   1.00
O2       0.41180    0.97650    1.02350   1.00
O2       0.47650    0.97650    1.08820   1.00
O2       0.58820    1.02350    1.02350   1.00
O2       0.52350    1.08820    1.02350   1.00
O2       0.52350    1.02350    1.08820   1.00
C1       0.50000    1.00000    0.89480   1.00
C1       0.50000    0.89480    1.00000   1.00
C1       0.60520    1.00000    1.00000   1.00
C1       0.39480    1.00000    1.00000   1.00
C1       0.50000    1.10520    1.00000   1.00
C1       0.50000    1.00000    1.10520   1.00
C4       0.75039    0.75302    1.02084   1.00
C4       0.75085    0.75245    0.97912   1.00
C3       0.77254    0.77960    1.04364   1.00
C3       0.77611    0.77595    0.95616   1.00
C3       0.72704    0.72519    1.04123   1.00
C3       0.72466    0.72718    0.95886   1.00
C2       0.74938    0.75102    1.10512   1.00
C2       0.75062    0.74898    0.89488   1.00
C3       0.77223    0.77851    1.08462   1.00
C3       0.77576    0.77454    0.91519   1.00
C3       0.72657    0.72504    1.08258   1.00
C3       0.72594    0.72499    0.91762   1.00
H1       0.78943    0.80062    1.03115   1.00
H1       0.79567    0.79460    0.96852   1.00
C5       0.70419    0.69780    1.02020   1.00
C5       0.69758    0.70397    0.97980   1.00
H1       0.78906    0.79828    1.09955   1.00
H1       0.79445    0.79245    0.90010   1.00
H1       0.70886    0.70563    1.09680   1.00
H1       0.70878    0.70496    0.90368   1.00
O3       0.68697    0.66709    1.03961   1.00
O3       0.66711    0.68540    0.96099   1.00
Si1      0.70954    0.62522    1.04247   1.00
Si1      0.62696    0.70966    0.95279   1.00
C6       0.67696    0.60265    1.07538   1.00
C6       0.70727    0.60330    0.99598   1.00
C6       0.75685    0.62890    1.06253   1.00
C6       0.62504    0.75923    0.96693   1.00
C6       0.62145    0.70618    0.90198   1.00
C6       0.58859    0.68344    0.97477   1.00
C6       0.66512    0.62748    1.11194   1.00
H2       0.65042    0.60017    1.05791   1.00
C6       0.68506    0.56052    1.09147   1.00
H2       0.68126    0.61686    0.98358   1.00
C6       0.74096    0.61170    0.96634   1.00
C6       0.70004    0.55828    0.99336   1.00
H2       0.75182    0.64700    1.08831   1.00
C6       0.77622    0.59036    1.07772   1.00
C6       0.79009    0.64943    1.03849   1.00
C6       0.63295    0.76940    1.01071   1.00
C6       0.64734    0.79060    0.94225   1.00
H2       0.59438    0.76642    0.96212   1.00
H2       0.64486    0.72445    0.89051   1.00
C6       0.62831    0.66483    0.88378   1.00
C6       0.58266    0.72207    0.88393   1.00
H2       0.58191    0.66045    0.95375   1.00
C6       0.59863    0.66153    1.01336   1.00
C6       0.54920    0.70531    0.98244   1.00
H2       0.65296    0.65570    1.10346   1.00
H2       0.69020    0.63283    1.13090   1.00
H2       0.64270    0.61269    1.12917   1.00
H2       0.65749    0.54511    1.09608   1.00
H2       0.70261    0.54292    1.07178   1.00
H2       0.69996    0.56100    1.11964   1.00
H2       0.73222    0.60364    0.93672   1.00
H2       0.74856    0.64251    0.96532   1.00
H2       0.76708    0.59496    0.97352   1.00
H2       0.67339    0.54986    1.00862   1.00
H2       0.69627    0.54888    0.96308   1.00
H2       0.72459    0.54196    1.00550   1.00
H2       0.77633    0.56787    1.05514   1.00
H2       0.80641    0.59497    1.08708   1.00
H2       0.76122    0.57921    1.10332   1.00
H2       0.80507    0.62915    1.01902   1.00
H2       0.77982    0.67343    1.02068   1.00
H2       0.81210    0.66140    1.05828   1.00
H2       0.66406    0.77146    1.01688   1.00
H2       0.62011    0.79766    1.01809   1.00
H2       0.62030    0.74801    1.03048   1.00
H2       0.63891    0.82005    0.95125   1.00
H2       0.67882    0.78854    0.94574   1.00
H2       0.64057    0.78850    0.91122   1.00
H2       0.63083    0.66691    0.85202   1.00
H2       0.65544    0.65181    0.89435   1.00
H2       0.60445    0.64479    0.89035   1.00
H2       0.57608    0.75150    0.89416   1.00
H2       0.58500    0.72360    0.85212   1.00
H2       0.55798    0.70314    0.89085   1.00
H2       0.60735    0.68148    1.03656   1.00
H2       0.57399    0.64421    1.02381   1.00
H2       0.62259    0.64143    1.00834   1.00
H2       0.52617    0.68472    0.99044   1.00
H2       0.55201    0.72637    1.00622   1.00
H2       0.53907    0.72079    0.95657   1.00
C4       0.75302    1.02084    0.75039   1.00
C4       0.75245    0.97912    0.75085   1.00
C3       0.77960    1.04364    0.77254   1.00
C3       0.77595    0.95616    0.77611   1.00
C3       0.72519    1.04123    0.72704   1.00
C3       0.72718    0.95886    0.72466   1.00
C2       0.75102    1.10512    0.74938   1.00
C2       0.74898    0.89488    0.75062   1.00
C3       0.77851    1.08462    0.77223   1.00
C3       0.77454    0.91519    0.77576   1.00
C3       0.72504    1.08258    0.72657   1.00
C3       0.72499    0.91762    0.72594   1.00
H1       0.80062    1.03115    0.78943   1.00
H1       0.79460    0.96852    0.79567   1.00
C5       0.69780    1.02020    0.70419   1.00
C5       0.70397    0.97980    0.69758   1.00
H1       0.79828    1.09955    0.78906   1.00
H1       0.79245    0.90010    0.79445   1.00
H1       0.70563    1.09680    0.70886   1.00
H1       0.70496    0.90368    0.70878   1.00
O3       0.66709    1.03961    0.68697   1.00
O3       0.68540    0.96099    0.66711   1.00
Si1      0.62522    1.04247    0.70954   1.00
Si1      0.70966    0.95279    0.62696   1.00
C6       0.60265    1.07538    0.67696   1.00
C6       0.60330    0.99598    0.70727   1.00
C6       0.62890    1.06253    0.75685   1.00
C6       0.75923    0.96693    0.62504   1.00
C6       0.70618    0.90198    0.62145   1.00
C6       0.68344    0.97477    0.58859   1.00
C6       0.62748    1.11194    0.66512   1.00
H2       0.60017    1.05791    0.65042   1.00
C6       0.56052    1.09147    0.68506   1.00
H2       0.61686    0.98358    0.68126   1.00
C6       0.61170    0.96634    0.74096   1.00
C6       0.55828    0.99336    0.70004   1.00
H2       0.64700    1.08831    0.75182   1.00
C6       0.59036    1.07772    0.77622   1.00
C6       0.64943    1.03849    0.79009   1.00
C6       0.76940    1.01071    0.63295   1.00
C6       0.79060    0.94225    0.64734   1.00
H2       0.76642    0.96212    0.59438   1.00
H2       0.72445    0.89051    0.64486   1.00
C6       0.66483    0.88378    0.62831   1.00
C6       0.72207    0.88393    0.58266   1.00
H2       0.66045    0.95375    0.58191   1.00
C6       0.66153    1.01336    0.59863   1.00
C6       0.70531    0.98244    0.54920   1.00
H2       0.65570    1.10346    0.65296   1.00
H2       0.63283    1.13090    0.69020   1.00
H2       0.61269    1.12917    0.64270   1.00
H2       0.54511    1.09608    0.65749   1.00
H2       0.54292    1.07178    0.70261   1.00
H2       0.56100    1.11964    0.69996   1.00
H2       0.60364    0.93672    0.73222   1.00
H2       0.64251    0.96532    0.74856   1.00
H2       0.59496    0.97352    0.76708   1.00
H2       0.54986    1.00862    0.67339   1.00
H2       0.54888    0.96308    0.69627   1.00
H2       0.54196    1.00550    0.72459   1.00
H2       0.56787    1.05514    0.77633   1.00
H2       0.59497    1.08708    0.80641   1.00
H2       0.57921    1.10332    0.76122   1.00
H2       0.62915    1.01902    0.80507   1.00
H2       0.67343    1.02068    0.77982   1.00
H2       0.66140    1.05828    0.81210   1.00
H2       0.77146    1.01688    0.66406   1.00
H2       0.79766    1.01809    0.62011   1.00
H2       0.74801    1.03048    0.62030   1.00
H2       0.82005    0.95125    0.63891   1.00
H2       0.78854    0.94574    0.67882   1.00
H2       0.78850    0.91122    0.64057   1.00
H2       0.66691    0.85202    0.63083   1.00
H2       0.65181    0.89435    0.65544   1.00
H2       0.64479    0.89035    0.60445   1.00
H2       0.75150    0.89416    0.57608   1.00
H2       0.72360    0.85212    0.58500   1.00
H2       0.70314    0.89085    0.55798   1.00
H2       0.68148    1.03656    0.60735   1.00
H2       0.64421    1.02381    0.57399   1.00
H2       0.64143    1.00834    0.62259   1.00
H2       0.68472    0.99044    0.52617   1.00
H2       0.72637    1.00622    0.55201   1.00
H2       0.72079    0.95657    0.53907   1.00
C4       0.47916    0.75039    0.74698   1.00
C4       0.52088    0.75085    0.74755   1.00
C3       0.45636    0.77254    0.72040   1.00
C3       0.54384    0.77611    0.72405   1.00
C3       0.45877    0.72704    0.77481   1.00
C3       0.54114    0.72466    0.77282   1.00
C2       0.39488    0.74938    0.74898   1.00
C2       0.60512    0.75062    0.75102   1.00
C3       0.41538    0.77223    0.72149   1.00
C3       0.58481    0.77576    0.72546   1.00
C3       0.41742    0.72657    0.77496   1.00
C3       0.58238    0.72594    0.77501   1.00
H1       0.46885    0.78943    0.69938   1.00
H1       0.53148    0.79567    0.70540   1.00
C5       0.47980    0.70419    0.80220   1.00
C5       0.52020    0.69758    0.79603   1.00
H1       0.40045    0.78906    0.70172   1.00
H1       0.59990    0.79445    0.70755   1.00
H1       0.40320    0.70886    0.79437   1.00
H1       0.59632    0.70878    0.79504   1.00
O3       0.46039    0.68697    0.83291   1.00
O3       0.53901    0.66711    0.81460   1.00
Si1      0.45753    0.70954    0.87478   1.00
Si1      0.54721    0.62696    0.79034   1.00
C6       0.42462    0.67696    0.89735   1.00
C6       0.50402    0.70727    0.89670   1.00
C6       0.43747    0.75685    0.87110   1.00
C6       0.53307    0.62504    0.74077   1.00
C6       0.59802    0.62145    0.79382   1.00
C6       0.52523    0.58859    0.81656   1.00
C6       0.38806    0.66512    0.87252   1.00
H2       0.44209    0.65042    0.89983   1.00
C6       0.40853    0.68506    0.93948   1.00
H2       0.51642    0.68126    0.88314   1.00
C6       0.53366    0.74096    0.88830   1.00
C6       0.50664    0.70004    0.94172   1.00
H2       0.41169    0.75182    0.85300   1.00
C6       0.42228    0.77622    0.90964   1.00
C6       0.46151    0.79009    0.85057   1.00
C6       0.48929    0.63295    0.73060   1.00
C6       0.55775    0.64734    0.70940   1.00
H2       0.53788    0.59438    0.73358   1.00
H2       0.60949    0.64486    0.77555   1.00
C6       0.61622    0.62831    0.83517   1.00
C6       0.61607    0.58266    0.77793   1.00
H2       0.54625    0.58191    0.83955   1.00
C6       0.48664    0.59863    0.83847   1.00
C6       0.51756    0.54920    0.79469   1.00
H2       0.39654    0.65296    0.84430   1.00
H2       0.36910    0.69020    0.86717   1.00
H2       0.37083    0.64270    0.88731   1.00
H2       0.40392    0.65749    0.95489   1.00
H2       0.42822    0.70261    0.95708   1.00
H2       0.38036    0.69996    0.93900   1.00
H2       0.56328    0.73222    0.89636   1.00
H2       0.53468    0.74856    0.85749   1.00
H2       0.52648    0.76708    0.90504   1.00
H2       0.49138    0.67339    0.95014   1.00
H2       0.53692    0.69627    0.95112   1.00
H2       0.49450    0.72459    0.95804   1.00
H2       0.44486    0.77633    0.93213   1.00
H2       0.41292    0.80641    0.90503   1.00
H2       0.39668    0.76122    0.92079   1.00
H2       0.48098    0.80507    0.87085   1.00
H2       0.47932    0.77982    0.82657   1.00
H2       0.44172    0.81210    0.83860   1.00
H2       0.48312    0.66406    0.72854   1.00
H2       0.48191    0.62011    0.70234   1.00
H2       0.46952    0.62030    0.75199   1.00
H2       0.54875    0.63891    0.67995   1.00
H2       0.55426    0.67882    0.71146   1.00
H2       0.58878    0.64057    0.71150   1.00
H2       0.64798    0.63083    0.83309   1.00
H2       0.60565    0.65544    0.84819   1.00
H2       0.60965    0.60445    0.85521   1.00
H2       0.60584    0.57608    0.74850   1.00
H2       0.64788    0.58500    0.77640   1.00
H2       0.60915    0.55798    0.79686   1.00
H2       0.46344    0.60735    0.81852   1.00
H2       0.47619    0.57399    0.85579   1.00
H2       0.49166    0.62259    0.85857   1.00
H2       0.50956    0.52617    0.81528   1.00
H2       0.49378    0.55201    0.77363   1.00
H2       0.54343    0.53907    0.77921   1.00
C4       1.02084    0.75039    0.75302   1.00
C4       0.97912    0.75085    0.75245   1.00
C3       1.04364    0.77254    0.77960   1.00
C3       0.95616    0.77611    0.77595   1.00
C3       1.04123    0.72704    0.72519   1.00
C3       0.95886    0.72466    0.72718   1.00
C2       1.10512    0.74938    0.75102   1.00
C2       0.89488    0.75062    0.74898   1.00
C3       1.08462    0.77223    0.77851   1.00
C3       0.91519    0.77576    0.77454   1.00
C3       1.08258    0.72657    0.72504   1.00
C3       0.91762    0.72594    0.72499   1.00
H1       1.03115    0.78943    0.80062   1.00
H1       0.96852    0.79567    0.79460   1.00
C5       1.02020    0.70419    0.69780   1.00
C5       0.97980    0.69758    0.70397   1.00
H1       1.09955    0.78906    0.79828   1.00
H1       0.90010    0.79445    0.79245   1.00
H1       1.09680    0.70886    0.70563   1.00
H1       0.90368    0.70878    0.70496   1.00
O3       1.03961    0.68697    0.66709   1.00
O3       0.96099    0.66711    0.68540   1.00
Si1      1.04247    0.70954    0.62522   1.00
Si1      0.95279    0.62696    0.70966   1.00
C6       1.07538    0.67696    0.60265   1.00
C6       0.99598    0.70727    0.60330   1.00
C6       1.06253    0.75685    0.62890   1.00
C6       0.96693    0.62504    0.75923   1.00
C6       0.90198    0.62145    0.70618   1.00
C6       0.97477    0.58859    0.68344   1.00
C6       1.11194    0.66512    0.62748   1.00
H2       1.05791    0.65042    0.60017   1.00
C6       1.09147    0.68506    0.56052   1.00
H2       0.98358    0.68126    0.61686   1.00
C6       0.96634    0.74096    0.61170   1.00
C6       0.99336    0.70004    0.55828   1.00
H2       1.08831    0.75182    0.64700   1.00
C6       1.07772    0.77622    0.59036   1.00
C6       1.03849    0.79009    0.64943   1.00
C6       1.01071    0.63295    0.76940   1.00
C6       0.94225    0.64734    0.79060   1.00
H2       0.96212    0.59438    0.76642   1.00
H2       0.89051    0.64486    0.72445   1.00
C6       0.88378    0.62831    0.66483   1.00
C6       0.88393    0.58266    0.72207   1.00
H2       0.95375    0.58191    0.66045   1.00
C6       1.01336    0.59863    0.66153   1.00
C6       0.98244    0.54920    0.70531   1.00
H2       1.10346    0.65296    0.65570   1.00
H2       1.13090    0.69020    0.63283   1.00
H2       1.12917    0.64270    0.61269   1.00
H2       1.09608    0.65749    0.54511   1.00
H2       1.07178    0.70261    0.54292   1.00
H2       1.11964    0.69996    0.56100   1.00
H2       0.93672    0.73222    0.60364   1.00
H2       0.96532    0.74856    0.64251   1.00
H2       0.97352    0.76708    0.59496   1.00
H2       1.00862    0.67339    0.54986   1.00
H2       0.96308    0.69627    0.54888   1.00
H2       1.00550    0.72459    0.54196   1.00
H2       1.05514    0.77633    0.56787   1.00
H2       1.08708    0.80641    0.59497   1.00
H2       1.10332    0.76122    0.57921   1.00
H2       1.01902    0.80507    0.62915   1.00
H2       1.02068    0.77982    0.67343   1.00
H2       1.05828    0.81210    0.66140   1.00
H2       1.01688    0.66406    0.77146   1.00
H2       1.01809    0.62011    0.79766   1.00
H2       1.03048    0.62030    0.74801   1.00
H2       0.95125    0.63891    0.82005   1.00
H2       0.94574    0.67882    0.78854   1.00
H2       0.91122    0.64057    0.78850   1.00
H2       0.85202    0.63083    0.66691   1.00
H2       0.89435    0.65544    0.65181   1.00
H2       0.89035    0.60445    0.64479   1.00
H2       0.89416    0.57608    0.75150   1.00
H2       0.85212    0.58500    0.72360   1.00
H2       0.89085    0.55798    0.70314   1.00
H2       1.03656    0.60735    0.68148   1.00
H2       1.02381    0.57399    0.64421   1.00
H2       1.00834    0.62259    0.64143   1.00
H2       0.99044    0.52617    0.68472   1.00
H2       1.00622    0.55201    0.72637   1.00
H2       0.95657    0.53907    0.72079   1.00
C4       0.74698    0.47916    0.75039   1.00
C4       0.74755    0.52088    0.75085   1.00
C3       0.72040    0.45636    0.77254   1.00
C3       0.72405    0.54384    0.77611   1.00
C3       0.77481    0.45877    0.72704   1.00
C3       0.77282    0.54114    0.72466   1.00
C2       0.74898    0.39488    0.74938   1.00
C2       0.75102    0.60512    0.75062   1.00
C3       0.72149    0.41538    0.77223   1.00
C3       0.72546    0.58481    0.77576   1.00
C3       0.77496    0.41742    0.72657   1.00
C3       0.77501    0.58238    0.72594   1.00
H1       0.69938    0.46885    0.78943   1.00
H1       0.70540    0.53148    0.79567   1.00
C5       0.80220    0.47980    0.70419   1.00
C5       0.79603    0.52020    0.69758   1.00
H1       0.70172    0.40045    0.78906   1.00
H1       0.70755    0.59990    0.79445   1.00
H1       0.79437    0.40320    0.70886   1.00
H1       0.79504    0.59632    0.70878   1.00
O3       0.83291    0.46039    0.68697   1.00
O3       0.81460    0.53901    0.66711   1.00
Si1      0.87478    0.45753    0.70954   1.00
Si1      0.79034    0.54721    0.62696   1.00
C6       0.89735    0.42462    0.67696   1.00
C6       0.89670    0.50402    0.70727   1.00
C6       0.87110    0.43747    0.75685   1.00
C6       0.74077    0.53307    0.62504   1.00
C6       0.79382    0.59802    0.62145   1.00
C6       0.81656    0.52523    0.58859   1.00
C6       0.87252    0.38806    0.66512   1.00
H2       0.89983    0.44209    0.65042   1.00
C6       0.93948    0.40853    0.68506   1.00
H2       0.88314    0.51642    0.68126   1.00
C6       0.88830    0.53366    0.74096   1.00
C6       0.94172    0.50664    0.70004   1.00
H2       0.85300    0.41169    0.75182   1.00
C6       0.90964    0.42228    0.77622   1.00
C6       0.85057    0.46151    0.79009   1.00
C6       0.73060    0.48929    0.63295   1.00
C6       0.70940    0.55775    0.64734   1.00
H2       0.73358    0.53788    0.59438   1.00
H2       0.77555    0.60949    0.64486   1.00
C6       0.83517    0.61622    0.62831   1.00
C6       0.77793    0.61607    0.58266   1.00
H2       0.83955    0.54625    0.58191   1.00
C6       0.83847    0.48664    0.59863   1.00
C6       0.79469    0.51756    0.54920   1.00
H2       0.84430    0.39654    0.65296   1.00
H2       0.86717    0.36910    0.69020   1.00
H2       0.88731    0.37083    0.64270   1.00
H2       0.95489    0.40392    0.65749   1.00
H2       0.95708    0.42822    0.70261   1.00
H2       0.93900    0.38036    0.69996   1.00
H2       0.89636    0.56328    0.73222   1.00
H2       0.85749    0.53468    0.74856   1.00
H2       0.90504    0.52648    0.76708   1.00
H2       0.95014    0.49138    0.67339   1.00
H2       0.95112    0.53692    0.69627   1.00
H2       0.95804    0.49450    0.72459   1.00
H2       0.93213    0.44486    0.77633   1.00
H2       0.90503    0.41292    0.80641   1.00
H2       0.92079    0.39668    0.76122   1.00
H2       0.87085    0.48098    0.80507   1.00
H2       0.82657    0.47932    0.77982   1.00
H2       0.83860    0.44172    0.81210   1.00
H2       0.72854    0.48312    0.66406   1.00
H2       0.70234    0.48191    0.62011   1.00
H2       0.75199    0.46952    0.62030   1.00
H2       0.67995    0.54875    0.63891   1.00
H2       0.71146    0.55426    0.67882   1.00
H2       0.71150    0.58878    0.64057   1.00
H2       0.83309    0.64798    0.63083   1.00
H2       0.84819    0.60565    0.65544   1.00
H2       0.85521    0.60965    0.60445   1.00
H2       0.74850    0.60584    0.57608   1.00
H2       0.77640    0.64788    0.58500   1.00
H2       0.79686    0.60915    0.55798   1.00
H2       0.81852    0.46344    0.60735   1.00
H2       0.85579    0.47619    0.57399   1.00
H2       0.85857    0.49166    0.62259   1.00
H2       0.81528    0.50956    0.52617   1.00
H2       0.77363    0.49378    0.55201   1.00
H2       0.77921    0.54343    0.53907   1.00
C4       0.75039    0.74698    0.47916   1.00
C4       0.75085    0.74755    0.52088   1.00
C3       0.77254    0.72040    0.45636   1.00
C3       0.77611    0.72405    0.54384   1.00
C3       0.72704    0.77481    0.45877   1.00
C3       0.72466    0.77282    0.54114   1.00
C2       0.74938    0.74898    0.39488   1.00
C2       0.75062    0.75102    0.60512   1.00
C3       0.77223    0.72149    0.41538   1.00
C3       0.77576    0.72546    0.58481   1.00
C3       0.72657    0.77496    0.41742   1.00
C3       0.72594    0.77501    0.58238   1.00
H1       0.78943    0.69938    0.46885   1.00
H1       0.79567    0.70540    0.53148   1.00
C5       0.70419    0.80220    0.47980   1.00
C5       0.69758    0.79603    0.52020   1.00
H1       0.78906    0.70172    0.40045   1.00
H1       0.79445    0.70755    0.59990   1.00
H1       0.70886    0.79437    0.40320   1.00
H1       0.70878    0.79504    0.59632   1.00
O3       0.68697    0.83291    0.46039   1.00
O3       0.66711    0.81460    0.53901   1.00
Si1      0.70954    0.87478    0.45753   1.00
Si1      0.62696    0.79034    0.54721   1.00
C6       0.67696    0.89735    0.42462   1.00
C6       0.70727    0.89670    0.50402   1.00
C6       0.75685    0.87110    0.43747   1.00
C6       0.62504    0.74077    0.53307   1.00
C6       0.62145    0.79382    0.59802   1.00
C6       0.58859    0.81656    0.52523   1.00
C6       0.66512    0.87252    0.38806   1.00
H2       0.65042    0.89983    0.44209   1.00
C6       0.68506    0.93948    0.40853   1.00
H2       0.68126    0.88314    0.51642   1.00
C6       0.74096    0.88830    0.53366   1.00
C6       0.70004    0.94172    0.50664   1.00
H2       0.75182    0.85300    0.41169   1.00
C6       0.77622    0.90964    0.42228   1.00
C6       0.79009    0.85057    0.46151   1.00
C6       0.63295    0.73060    0.48929   1.00
C6       0.64734    0.70940    0.55775   1.00
H2       0.59438    0.73358    0.53788   1.00
H2       0.64486    0.77555    0.60949   1.00
C6       0.62831    0.83517    0.61622   1.00
C6       0.58266    0.77793    0.61607   1.00
H2       0.58191    0.83955    0.54625   1.00
C6       0.59863    0.83847    0.48664   1.00
C6       0.54920    0.79469    0.51756   1.00
H2       0.65296    0.84430    0.39654   1.00
H2       0.69020    0.86717    0.36910   1.00
H2       0.64270    0.88731    0.37083   1.00
H2       0.65749    0.95489    0.40392   1.00
H2       0.70261    0.95708    0.42822   1.00
H2       0.69996    0.93900    0.38036   1.00
H2       0.73222    0.89636    0.56328   1.00
H2       0.74856    0.85749    0.53468   1.00
H2       0.76708    0.90504    0.52648   1.00
H2       0.67339    0.95014    0.49138   1.00
H2       0.69627    0.95112    0.53692   1.00
H2       0.72459    0.95804    0.49450   1.00
H2       0.77633    0.93213    0.44486   1.00
H2       0.80641    0.90503    0.41292   1.00
H2       0.76122    0.92079    0.39668   1.00
H2       0.80507    0.87085    0.48098   1.00
H2       0.77982    0.82657    0.47932   1.00
H2       0.81210    0.83860    0.44172   1.00
H2       0.66406    0.72854    0.48312   1.00
H2       0.62011    0.70234    0.48191   1.00
H2       0.62030    0.75199    0.46952   1.00
H2       0.63891    0.67995    0.54875   1.00
H2       0.67882    0.71146    0.55426   1.00
H2       0.64057    0.71150    0.58878   1.00
H2       0.63083    0.83309    0.64798   1.00
H2       0.65544    0.84819    0.60565   1.00
H2       0.60445    0.85521    0.60965   1.00
H2       0.57608    0.74850    0.60584   1.00
H2       0.58500    0.77640    0.64788   1.00
H2       0.55798    0.79686    0.60915   1.00
H2       0.60735    0.81852    0.46344   1.00
H2       0.57399    0.85579    0.47619   1.00
H2       0.62259    0.85857    0.49166   1.00
H2       0.52617    0.81528    0.50956   1.00
H2       0.55201    0.77363    0.49378   1.00
H2       0.53907    0.77921    0.54343   1.00
C4       0.25039    0.25302    1.02084   1.00
C4       0.25085    0.25245    0.97912   1.00
C3       0.27254    0.27960    1.04364   1.00
C3       0.27611    0.27595    0.95616   1.00
C3       0.22704    0.22519    1.04123   1.00
C3       0.22466    0.22718    0.95886   1.00
C2       0.24938    0.25102    1.10512   1.00
C2       0.25062    0.24898    0.89488   1.00
C3       0.27223    0.27851    1.08462   1.00
C3       0.27576    0.27454    0.91519   1.00
C3       0.22657    0.22504    1.08258   1.00
C3       0.22594    0.22499    0.91762   1.00
H1       0.28943    0.30062    1.03115   1.00
H1       0.29567    0.29460    0.96852   1.00
C5       0.20419    0.19780    1.02020   1.00
C5       0.19758    0.20397    0.97980   1.00
H1       0.28906    0.29828    1.09955   1.00
H1       0.29445    0.29245    0.90010   1.00
H1       0.20886    0.20563    1.09680   1.00
H1       0.20878    0.20496    0.90368   1.00
O3       0.18697    0.16709    1.03961   1.00
O3       0.16711    0.18540    0.96099   1.00
Si1      0.20954    0.12522    1.04247   1.00
Si1      0.12696    0.20966    0.95279   1.00
C6       0.17696    0.10265    1.07538   1.00
C6       0.20727    0.10330    0.99598   1.00
C6       0.25685    0.12890    1.06253   1.00
C6       0.12504    0.25923    0.96693   1.00
C6       0.12145    0.20618    0.90198   1.00
C6       0.08859    0.18344    0.97477   1.00
C6       0.16512    0.12748    1.11194   1.00
H2       0.15042    0.10017    1.05791   1.00
C6       0.18506    0.06052    1.09147   1.00
H2       0.18126    0.11686    0.98358   1.00
C6       0.24096    0.11170    0.96634   1.00
C6       0.20004    0.05828    0.99336   1.00
H2       0.25182    0.14700    1.08831   1.00
C6       0.27622    0.09036    1.07772   1.00
C6       0.29009    0.14943    1.03849   1.00
C6       0.13295    0.26940    1.01071   1.00
C6       0.14734    0.29060    0.94225   1.00
H2       0.09438    0.26642    0.96212   1.00
H2       0.14486    0.22445    0.89051   1.00
C6       0.12831    0.16483    0.88378   1.00
C6       0.08266    0.22207    0.88393   1.00
H2       0.08191    0.16045    0.95375   1.00
C6       0.09863    0.16153    1.01336   1.00
C6       0.04920    0.20531    0.98244   1.00
H2       0.15296    0.15570    1.10346   1.00
H2       0.19020    0.13283    1.13090   1.00
H2       0.14270    0.11269    1.12917   1.00
H2       0.15749    0.04511    1.09608   1.00
H2       0.20261    0.04292    1.07178   1.00
H2       0.19996    0.06100    1.11964   1.00
H2       0.23222    0.10364    0.93672   1.00
H2       0.24856    0.14251    0.96532   1.00
H2       0.26708    0.09496    0.97352   1.00
H2       0.17339    0.04986    1.00862   1.00
H2       0.19627    0.04888    0.96308   1.00
H2       0.22459    0.04196    1.00550   1.00
H2       0.27633    0.06787    1.05514   1.00
H2       0.30641    0.09497    1.08708   1.00
H2       0.26122    0.07921    1.10332   1.00
H2       0.30507    0.12915    1.01902   1.00
H2       0.27982    0.17343    1.02068   1.00
H2       0.31210    0.16140    1.05828   1.00
H2       0.16406    0.27146    1.01688   1.00
H2       0.12011    0.29766    1.01809   1.00
H2       0.12030    0.24801    1.03048   1.00
H2       0.13891    0.32005    0.95125   1.00
H2       0.17882    0.28854    0.94574   1.00
H2       0.14057    0.28850    0.91122   1.00
H2       0.13083    0.16691    0.85202   1.00
H2       0.15544    0.15181    0.89435   1.00
H2       0.10445    0.14479    0.89035   1.00
H2       0.07608    0.25150    0.89416   1.00
H2       0.08500    0.22360    0.85212   1.00
H2       0.05798    0.20314    0.89085   1.00
H2       0.10735    0.18148    1.03656   1.00
H2       0.07399    0.14421    1.02381   1.00
H2       0.12259    0.14143    1.00834   1.00
H2       0.02617    0.18472    0.99044   1.00
H2       0.05201    0.22637    1.00622   1.00
H2       0.03907    0.22079    0.95657   1.00
C4       0.25302    0.52084    0.75039   1.00
C4       0.25245    0.47912    0.75085   1.00
C3       0.27960    0.54364    0.77254   1.00
C3       0.27595    0.45616    0.77611   1.00
C3       0.22519    0.54123    0.72704   1.00
C3       0.22718    0.45886    0.72466   1.00
C2       0.25102    0.60512    0.74938   1.00
C2       0.24898    0.39488    0.75062   1.00
C3       0.27851    0.58462    0.77223   1.00
C3       0.27454    0.41519    0.77576   1.00
C3       0.22504    0.58258    0.72657   1.00
C3       0.22499    0.41762    0.72594   1.00
H1       0.30062    0.53115    0.78943   1.00
H1       0.29460    0.46852    0.79567   1.00
C5       0.19780    0.52020    0.70419   1.00
C5       0.20397    0.47980    0.69758   1.00
H1       0.29828    0.59955    0.78906   1.00
H1       0.29245    0.40010    0.79445   1.00
H1       0.20563    0.59680    0.70886   1.00
H1       0.20496    0.40368    0.70878   1.00
O3       0.16709    0.53961    0.68697   1.00
O3       0.18540    0.46099    0.66711   1.00
Si1      0.12522    0.54247    0.70954   1.00
Si1      0.20966    0.45279    0.62696   1.00
C6       0.10265    0.57538    0.67696   1.00
C6       0.10330    0.49598    0.70727   1.00
C6       0.12890    0.56253    0.75685   1.00
C6       0.25923    0.46693    0.62504   1.00
C6       0.20618    0.40198    0.62145   1.00
C6       0.18344    0.47477    0.58859   1.00
C6       0.12748    0.61194    0.66512   1.00
H2       0.10017    0.55791    0.65042   1.00
C6       0.06052    0.59147    0.68506   1.00
H2       0.11686    0.48358    0.68126   1.00
C6       0.11170    0.46634    0.74096   1.00
C6       0.05828    0.49336    0.70004   1.00
H2       0.14700    0.58831    0.75182   1.00
C6       0.09036    0.57772    0.77622   1.00
C6       0.14943    0.53849    0.79009   1.00
C6       0.26940    0.51071    0.63295   1.00
C6       0.29060    0.44225    0.64734   1.00
H2       0.26642    0.46212    0.59438   1.00
H2       0.22445    0.39051    0.64486   1.00
C6       0.16483    0.38378    0.62831   1.00
C6       0.22207    0.38393    0.58266   1.00
H2       0.16045    0.45375    0.58191   1.00
C6       0.16153    0.51336    0.59863   1.00
C6       0.20531    0.48244    0.54920   1.00
H2       0.15570    0.60346    0.65296   1.00
H2       0.13283    0.63090    0.69020   1.00
H2       0.11269    0.62917    0.64270   1.00
H2       0.04511    0.59608    0.65749   1.00
H2       0.04292    0.57178    0.70261   1.00
H2       0.06100    0.61964    0.69996   1.00
H2       0.10364    0.43672    0.73222   1.00
H2       0.14251    0.46532    0.74856   1.00
H2       0.09496    0.47352    0.76708   1.00
H2       0.04986    0.50862    0.67339   1.00
H2       0.04888    0.46308    0.69627   1.00
H2       0.04196    0.50550    0.72459   1.00
H2       0.06787    0.55514    0.77633   1.00
H2       0.09497    0.58708    0.80641   1.00
H2       0.07921    0.60332    0.76122   1.00
H2       0.12915    0.51902    0.80507   1.00
H2       0.17343    0.52068    0.77982   1.00
H2       0.16140    0.55828    0.81210   1.00
H2       0.27146    0.51688    0.66406   1.00
H2       0.29766    0.51809    0.62011   1.00
H2       0.24801    0.53048    0.62030   1.00
H2       0.32005    0.45125    0.63891   1.00
H2       0.28854    0.44574    0.67882   1.00
H2       0.28850    0.41122    0.64057   1.00
H2       0.16691    0.35202    0.63083   1.00
H2       0.15181    0.39435    0.65544   1.00
H2       0.14479    0.39035    0.60445   1.00
H2       0.25150    0.39416    0.57608   1.00
H2       0.22360    0.35212    0.58500   1.00
H2       0.20314    0.39085    0.55798   1.00
H2       0.18148    0.53656    0.60735   1.00
H2       0.14421    0.52381    0.57399   1.00
H2       0.14143    0.50834    0.62259   1.00
H2       0.18472    0.49044    0.52617   1.00
H2       0.22637    0.50622    0.55201   1.00
H2       0.22079    0.45657    0.53907   1.00
C4       -0.02084   0.25039    0.74698   1.00
C4       0.02088    0.25085    0.74755   1.00
C3       -0.04364   0.27254    0.72040   1.00
C3       0.04384    0.27611    0.72405   1.00
C3       -0.04123   0.22704    0.77481   1.00
C3       0.04114    0.22466    0.77282   1.00
C2       -0.10512   0.24938    0.74898   1.00
C2       0.10512    0.25062    0.75102   1.00
C3       -0.08462   0.27223    0.72149   1.00
C3       0.08481    0.27576    0.72546   1.00
C3       -0.08258   0.22657    0.77496   1.00
C3       0.08238    0.22594    0.77501   1.00
H1       -0.03115   0.28943    0.69938   1.00
H1       0.03148    0.29567    0.70540   1.00
C5       -0.02020   0.20419    0.80220   1.00
C5       0.02020    0.19758    0.79603   1.00
H1       -0.09955   0.28906    0.70172   1.00
H1       0.09990    0.29445    0.70755   1.00
H1       -0.09680   0.20886    0.79437   1.00
H1       0.09632    0.20878    0.79504   1.00
O3       -0.03961   0.18697    0.83291   1.00
O3       0.03901    0.16711    0.81460   1.00
Si1      -0.04247   0.20954    0.87478   1.00
Si1      0.04721    0.12696    0.79034   1.00
C6       -0.07538   0.17696    0.89735   1.00
C6       0.00402    0.20727    0.89670   1.00
C6       -0.06253   0.25685    0.87110   1.00
C6       0.03307    0.12504    0.74077   1.00
C6       0.09802    0.12145    0.79382   1.00
C6       0.02523    0.08859    0.81656   1.00
C6       -0.11194   0.16512    0.87252   1.00
H2       -0.05791   0.15042    0.89983   1.00
C6       -0.09147   0.18506    0.93948   1.00
H2       0.01642    0.18126    0.88314   1.00
C6       0.03366    0.24096    0.88830   1.00
C6       0.00664    0.20004    0.94172   1.00
H2       -0.08831   0.25182    0.85300   1.00
C6       -0.07772   0.27622    0.90964   1.00
C6       -0.03849   0.29009    0.85057   1.00
C6       -0.01071   0.13295    0.73060   1.00
C6       0.05775    0.14734    0.70940   1.00
H2       0.03788    0.09438    0.73358   1.00
H2       0.10949    0.14486    0.77555   1.00
C6       0.11622    0.12831    0.83517   1.00
C6       0.11607    0.08266    0.77793   1.00
H2       0.04625    0.08191    0.83955   1.00
C6       -0.01336   0.09863    0.83847   1.00
C6       0.01756    0.04920    0.79469   1.00
H2       -0.10346   0.15296    0.84430   1.00
H2       -0.13090   0.19020    0.86717   1.00
H2       -0.12917   0.14270    0.88731   1.00
H2       -0.09608   0.15749    0.95489   1.00
H2       -0.07178   0.20261    0.95708   1.00
H2       -0.11964   0.19996    0.93900   1.00
H2       0.06328    0.23222    0.89636   1.00
H2       0.03468    0.24856    0.85749   1.00
H2       0.02648    0.26708    0.90504   1.00
H2       -0.00862   0.17339    0.95014   1.00
H2       0.03692    0.19627    0.95112   1.00
H2       -0.00550   0.22459    0.95804   1.00
H2       -0.05514   0.27633    0.93213   1.00
H2       -0.08708   0.30641    0.90503   1.00
H2       -0.10332   0.26122    0.92079   1.00
H2       -0.01902   0.30507    0.87085   1.00
H2       -0.02068   0.27982    0.82657   1.00
H2       -0.05828   0.31210    0.83860   1.00
H2       -0.01688   0.16406    0.72854   1.00
H2       -0.01809   0.12011    0.70234   1.00
H2       -0.03048   0.12030    0.75199   1.00
H2       0.04875    0.13891    0.67995   1.00
H2       0.05426    0.17882    0.71146   1.00
H2       0.08878    0.14057    0.71150   1.00
H2       0.14798    0.13083    0.83309   1.00
H2       0.10565    0.15544    0.84819   1.00
H2       0.10965    0.10445    0.85521   1.00
H2       0.10584    0.07608    0.74850   1.00
H2       0.14788    0.08500    0.77640   1.00
H2       0.10915    0.05798    0.79686   1.00
H2       -0.03656   0.10735    0.81852   1.00
H2       -0.02381   0.07399    0.85579   1.00
H2       -0.00834   0.12259    0.85857   1.00
H2       0.00956    0.02617    0.81528   1.00
H2       -0.00622   0.05201    0.77363   1.00
H2       0.04343    0.03907    0.77921   1.00
C4       0.52084    0.25039    0.75302   1.00
C4       0.47912    0.25085    0.75245   1.00
C3       0.54364    0.27254    0.77960   1.00
C3       0.45616    0.27611    0.77595   1.00
C3       0.54123    0.22704    0.72519   1.00
C3       0.45886    0.22466    0.72718   1.00
C2       0.60512    0.24938    0.75102   1.00
C2       0.39488    0.25062    0.74898   1.00
C3       0.58462    0.27223    0.77851   1.00
C3       0.41519    0.27576    0.77454   1.00
C3       0.58258    0.22657    0.72504   1.00
C3       0.41762    0.22594    0.72499   1.00
H1       0.53115    0.28943    0.80062   1.00
H1       0.46852    0.29567    0.79460   1.00
C5       0.52020    0.20419    0.69780   1.00
C5       0.47980    0.19758    0.70397   1.00
H1       0.59955    0.28906    0.79828   1.00
H1       0.40010    0.29445    0.79245   1.00
H1       0.59680    0.20886    0.70563   1.00
H1       0.40368    0.20878    0.70496   1.00
O3       0.53961    0.18697    0.66709   1.00
O3       0.46099    0.16711    0.68540   1.00
Si1      0.54247    0.20954    0.62522   1.00
Si1      0.45279    0.12696    0.70966   1.00
C6       0.57538    0.17696    0.60265   1.00
C6       0.49598    0.20727    0.60330   1.00
C6       0.56253    0.25685    0.62890   1.00
C6       0.46693    0.12504    0.75923   1.00
C6       0.40198    0.12145    0.70618   1.00
C6       0.47477    0.08859    0.68344   1.00
C6       0.61194    0.16512    0.62748   1.00
H2       0.55791    0.15042    0.60017   1.00
C6       0.59147    0.18506    0.56052   1.00
H2       0.48358    0.18126    0.61686   1.00
C6       0.46634    0.24096    0.61170   1.00
C6       0.49336    0.20004    0.55828   1.00
H2       0.58831    0.25182    0.64700   1.00
C6       0.57772    0.27622    0.59036   1.00
C6       0.53849    0.29009    0.64943   1.00
C6       0.51071    0.13295    0.76940   1.00
C6       0.44225    0.14734    0.79060   1.00
H2       0.46212    0.09438    0.76642   1.00
H2       0.39051    0.14486    0.72445   1.00
C6       0.38378    0.12831    0.66483   1.00
C6       0.38393    0.08266    0.72207   1.00
H2       0.45375    0.08191    0.66045   1.00
C6       0.51336    0.09863    0.66153   1.00
C6       0.48244    0.04920    0.70531   1.00
H2       0.60346    0.15296    0.65570   1.00
H2       0.63090    0.19020    0.63283   1.00
H2       0.62917    0.14270    0.61269   1.00
H2       0.59608    0.15749    0.54511   1.00
H2       0.57178    0.20261    0.54292   1.00
H2       0.61964    0.19996    0.56100   1.00
H2       0.43672    0.23222    0.60364   1.00
H2       0.46532    0.24856    0.64251   1.00
H2       0.47352    0.26708    0.59496   1.00
H2       0.50862    0.17339    0.54986   1.00
H2       0.46308    0.19627    0.54888   1.00
H2       0.50550    0.22459    0.54196   1.00
H2       0.55514    0.27633    0.56787   1.00
H2       0.58708    0.30641    0.59497   1.00
H2       0.60332    0.26122    0.57921   1.00
H2       0.51902    0.30507    0.62915   1.00
H2       0.52068    0.27982    0.67343   1.00
H2       0.55828    0.31210    0.66140   1.00
H2       0.51688    0.16406    0.77146   1.00
H2       0.51809    0.12011    0.79766   1.00
H2       0.53048    0.12030    0.74801   1.00
H2       0.45125    0.13891    0.82005   1.00
H2       0.44574    0.17882    0.78854   1.00
H2       0.41122    0.14057    0.78850   1.00
H2       0.35202    0.13083    0.66691   1.00
H2       0.39435    0.15544    0.65181   1.00
H2       0.39035    0.10445    0.64479   1.00
H2       0.39416    0.07608    0.75150   1.00
H2       0.35212    0.08500    0.72360   1.00
H2       0.39085    0.05798    0.70314   1.00
H2       0.53656    0.10735    0.68148   1.00
H2       0.52381    0.07399    0.64421   1.00
H2       0.50834    0.12259    0.64143   1.00
H2       0.49044    0.02617    0.68472   1.00
H2       0.50622    0.05201    0.72637   1.00
H2       0.45657    0.03907    0.72079   1.00
C4       0.24698    -0.02084   0.75039   1.00
C4       0.24755    0.02088    0.75085   1.00
C3       0.22040    -0.04364   0.77254   1.00
C3       0.22405    0.04384    0.77611   1.00
C3       0.27481    -0.04123   0.72704   1.00
C3       0.27282    0.04114    0.72466   1.00
C2       0.24898    -0.10512   0.74938   1.00
C2       0.25102    0.10512    0.75062   1.00
C3       0.22149    -0.08462   0.77223   1.00
C3       0.22546    0.08481    0.77576   1.00
C3       0.27496    -0.08258   0.72657   1.00
C3       0.27501    0.08238    0.72594   1.00
H1       0.19938    -0.03115   0.78943   1.00
H1       0.20540    0.03148    0.79567   1.00
C5       0.30220    -0.02020   0.70419   1.00
C5       0.29603    0.02020    0.69758   1.00
H1       0.20172    -0.09955   0.78906   1.00
H1       0.20755    0.09990    0.79445   1.00
H1       0.29437    -0.09680   0.70886   1.00
H1       0.29504    0.09632    0.70878   1.00
O3       0.33291    -0.03961   0.68697   1.00
O3       0.31460    0.03901    0.66711   1.00
Si1      0.37478    -0.04247   0.70954   1.00
Si1      0.29034    0.04721    0.62696   1.00
C6       0.39735    -0.07538   0.67696   1.00
C6       0.39670    0.00402    0.70727   1.00
C6       0.37110    -0.06253   0.75685   1.00
C6       0.24077    0.03307    0.62504   1.00
C6       0.29382    0.09802    0.62145   1.00
C6       0.31656    0.02523    0.58859   1.00
C6       0.37252    -0.11194   0.66512   1.00
H2       0.39983    -0.05791   0.65042   1.00
C6       0.43948    -0.09147   0.68506   1.00
H2       0.38314    0.01642    0.68126   1.00
C6       0.38830    0.03366    0.74096   1.00
C6       0.44172    0.00664    0.70004   1.00
H2       0.35300    -0.08831   0.75182   1.00
C6       0.40964    -0.07772   0.77622   1.00
C6       0.35057    -0.03849   0.79009   1.00
C6       0.23060    -0.01071   0.63295   1.00
C6       0.20940    0.05775    0.64734   1.00
H2       0.23358    0.03788    0.59438   1.00
H2       0.27555    0.10949    0.64486   1.00
C6       0.33517    0.11622    0.62831   1.00
C6       0.27793    0.11607    0.58266   1.00
H2       0.33955    0.04625    0.58191   1.00
C6       0.33847    -0.01336   0.59863   1.00
C6       0.29469    0.01756    0.54920   1.00
H2       0.34430    -0.10346   0.65296   1.00
H2       0.36717    -0.13090   0.69020   1.00
H2       0.38731    -0.12917   0.64270   1.00
H2       0.45489    -0.09608   0.65749   1.00
H2       0.45708    -0.07178   0.70261   1.00
H2       0.43900    -0.11964   0.69996   1.00
H2       0.39636    0.06328    0.73222   1.00
H2       0.35749    0.03468    0.74856   1.00
H2       0.40504    0.02648    0.76708   1.00
H2       0.45014    -0.00862   0.67339   1.00
H2       0.45112    0.03692    0.69627   1.00
H2       0.45804    -0.00550   0.72459   1.00
H2       0.43213    -0.05514   0.77633   1.00
H2       0.40503    -0.08708   0.80641   1.00
H2       0.42079    -0.10332   0.76122   1.00
H2       0.37085    -0.01902   0.80507   1.00
H2       0.32657    -0.02068   0.77982   1.00
H2       0.33860    -0.05828   0.81210   1.00
H2       0.22854    -0.01688   0.66406   1.00
H2       0.20234    -0.01809   0.62011   1.00
H2       0.25199    -0.03048   0.62030   1.00
H2       0.17995    0.04875    0.63891   1.00
H2       0.21146    0.05426    0.67882   1.00
H2       0.21150    0.08878    0.64057   1.00
H2       0.33309    0.14798    0.63083   1.00
H2       0.34819    0.10565    0.65544   1.00
H2       0.35521    0.10965    0.60445   1.00
H2       0.24850    0.10584    0.57608   1.00
H2       0.27640    0.14788    0.58500   1.00
H2       0.29686    0.10915    0.55798   1.00
H2       0.31852    -0.03656   0.60735   1.00
H2       0.35579    -0.02381   0.57399   1.00
H2       0.35857    -0.00834   0.62259   1.00
H2       0.31528    0.00956    0.52617   1.00
H2       0.27363    -0.00622   0.55201   1.00
H2       0.27921    0.04343    0.53907   1.00
C4       0.25039    0.24698    0.47916   1.00
C4       0.25085    0.24755    0.52088   1.00
C3       0.27254    0.22040    0.45636   1.00
C3       0.27611    0.22405    0.54384   1.00
C3       0.22704    0.27481    0.45877   1.00
C3       0.22466    0.27282    0.54114   1.00
C2       0.24938    0.24898    0.39488   1.00
C2       0.25062    0.25102    0.60512   1.00
C3       0.27223    0.22149    0.41538   1.00
C3       0.27576    0.22546    0.58481   1.00
C3       0.22657    0.27496    0.41742   1.00
C3       0.22594    0.27501    0.58238   1.00
H1       0.28943    0.19938    0.46885   1.00
H1       0.29567    0.20540    0.53148   1.00
C5       0.20419    0.30220    0.47980   1.00
C5       0.19758    0.29603    0.52020   1.00
H1       0.28906    0.20172    0.40045   1.00
H1       0.29445    0.20755    0.59990   1.00
H1       0.20886    0.29437    0.40320   1.00
H1       0.20878    0.29504    0.59632   1.00
O3       0.18697    0.33291    0.46039   1.00
O3       0.16711    0.31460    0.53901   1.00
Si1      0.20954    0.37478    0.45753   1.00
Si1      0.12696    0.29034    0.54721   1.00
C6       0.17696    0.39735    0.42462   1.00
C6       0.20727    0.39670    0.50402   1.00
C6       0.25685    0.37110    0.43747   1.00
C6       0.12504    0.24077    0.53307   1.00
C6       0.12145    0.29382    0.59802   1.00
C6       0.08859    0.31656    0.52523   1.00
C6       0.16512    0.37252    0.38806   1.00
H2       0.15042    0.39983    0.44209   1.00
C6       0.18506    0.43948    0.40853   1.00
H2       0.18126    0.38314    0.51642   1.00
C6       0.24096    0.38830    0.53366   1.00
C6       0.20004    0.44172    0.50664   1.00
H2       0.25182    0.35300    0.41169   1.00
C6       0.27622    0.40964    0.42228   1.00
C6       0.29009    0.35057    0.46151   1.00
C6       0.13295    0.23060    0.48929   1.00
C6       0.14734    0.20940    0.55775   1.00
H2       0.09438    0.23358    0.53788   1.00
H2       0.14486    0.27555    0.60949   1.00
C6       0.12831    0.33517    0.61622   1.00
C6       0.08266    0.27793    0.61607   1.00
H2       0.08191    0.33955    0.54625   1.00
C6       0.09863    0.33847    0.48664   1.00
C6       0.04920    0.29469    0.51756   1.00
H2       0.15296    0.34430    0.39654   1.00
H2       0.19020    0.36717    0.36910   1.00
H2       0.14270    0.38731    0.37083   1.00
H2       0.15749    0.45489    0.40392   1.00
H2       0.20261    0.45708    0.42822   1.00
H2       0.19996    0.43900    0.38036   1.00
H2       0.23222    0.39636    0.56328   1.00
H2       0.24856    0.35749    0.53468   1.00
H2       0.26708    0.40504    0.52648   1.00
H2       0.17339    0.45014    0.49138   1.00
H2       0.19627    0.45112    0.53692   1.00
H2       0.22459    0.45804    0.49450   1.00
H2       0.27633    0.43213    0.44486   1.00
H2       0.30641    0.40503    0.41292   1.00
H2       0.26122    0.42079    0.39668   1.00
H2       0.30507    0.37085    0.48098   1.00
H2       0.27982    0.32657    0.47932   1.00
H2       0.31210    0.33860    0.44172   1.00
H2       0.16406    0.22854    0.48312   1.00
H2       0.12011    0.20234    0.48191   1.00
H2       0.12030    0.25199    0.46952   1.00
H2       0.13891    0.17995    0.54875   1.00
H2       0.17882    0.21146    0.55426   1.00
H2       0.14057    0.21150    0.58878   1.00
H2       0.13083    0.33309    0.64798   1.00
H2       0.15544    0.34819    0.60565   1.00
H2       0.10445    0.35521    0.60965   1.00
H2       0.07608    0.24850    0.60584   1.00
H2       0.08500    0.27640    0.64788   1.00
H2       0.05798    0.29686    0.60915   1.00
H2       0.10735    0.31852    0.46344   1.00
H2       0.07399    0.35579    0.47619   1.00
H2       0.12259    0.35857    0.49166   1.00
H2       0.02617    0.31528    0.50956   1.00
H2       0.05201    0.27363    0.49378   1.00
H2       0.03907    0.27921    0.54343   1.00
C4       0.25039    0.75302    0.52084   1.00
C4       0.25085    0.75245    0.47912   1.00
C3       0.27254    0.77960    0.54364   1.00
C3       0.27611    0.77595    0.45616   1.00
C3       0.22704    0.72519    0.54123   1.00
C3       0.22466    0.72718    0.45886   1.00
C2       0.24938    0.75102    0.60512   1.00
C2       0.25062    0.74898    0.39488   1.00
C3       0.27223    0.77851    0.58462   1.00
C3       0.27576    0.77454    0.41519   1.00
C3       0.22657    0.72504    0.58258   1.00
C3       0.22594    0.72499    0.41762   1.00
H1       0.28943    0.80062    0.53115   1.00
H1       0.29567    0.79460    0.46852   1.00
C5       0.20419    0.69780    0.52020   1.00
C5       0.19758    0.70397    0.47980   1.00
H1       0.28906    0.79828    0.59955   1.00
H1       0.29445    0.79245    0.40010   1.00
H1       0.20886    0.70563    0.59680   1.00
H1       0.20878    0.70496    0.40368   1.00
O3       0.18697    0.66709    0.53961   1.00
O3       0.16711    0.68540    0.46099   1.00
Si1      0.20954    0.62522    0.54247   1.00
Si1      0.12696    0.70966    0.45279   1.00
C6       0.17696    0.60265    0.57538   1.00
C6       0.20727    0.60330    0.49598   1.00
C6       0.25685    0.62890    0.56253   1.00
C6       0.12504    0.75923    0.46693   1.00
C6       0.12145    0.70618    0.40198   1.00
C6       0.08859    0.68344    0.47477   1.00
C6       0.16512    0.62748    0.61194   1.00
H2       0.15042    0.60017    0.55791   1.00
C6       0.18506    0.56052    0.59147   1.00
H2       0.18126    0.61686    0.48358   1.00
C6       0.24096    0.61170    0.46634   1.00
C6       0.20004    0.55828    0.49336   1.00
H2       0.25182    0.64700    0.58831   1.00
C6       0.27622    0.59036    0.57772   1.00
C6       0.29009    0.64943    0.53849   1.00
C6       0.13295    0.76940    0.51071   1.00
C6       0.14734    0.79060    0.44225   1.00
H2       0.09438    0.76642    0.46212   1.00
H2       0.14486    0.72445    0.39051   1.00
C6       0.12831    0.66483    0.38378   1.00
C6       0.08266    0.72207    0.38393   1.00
H2       0.08191    0.66045    0.45375   1.00
C6       0.09863    0.66153    0.51336   1.00
C6       0.04920    0.70531    0.48244   1.00
H2       0.15296    0.65570    0.60346   1.00
H2       0.19020    0.63283    0.63090   1.00
H2       0.14270    0.61269    0.62917   1.00
H2       0.15749    0.54511    0.59608   1.00
H2       0.20261    0.54292    0.57178   1.00
H2       0.19996    0.56100    0.61964   1.00
H2       0.23222    0.60364    0.43672   1.00
H2       0.24856    0.64251    0.46532   1.00
H2       0.26708    0.59496    0.47352   1.00
H2       0.17339    0.54986    0.50862   1.00
H2       0.19627    0.54888    0.46308   1.00
H2       0.22459    0.54196    0.50550   1.00
H2       0.27633    0.56787    0.55514   1.00
H2       0.30641    0.59497    0.58708   1.00
H2       0.26122    0.57921    0.60332   1.00
H2       0.30507    0.62915    0.51902   1.00
H2       0.27982    0.67343    0.52068   1.00
H2       0.31210    0.66140    0.55828   1.00
H2       0.16406    0.77146    0.51688   1.00
H2       0.12011    0.79766    0.51809   1.00
H2       0.12030    0.74801    0.53048   1.00
H2       0.13891    0.82005    0.45125   1.00
H2       0.17882    0.78854    0.44574   1.00
H2       0.14057    0.78850    0.41122   1.00
H2       0.13083    0.66691    0.35202   1.00
H2       0.15544    0.65181    0.39435   1.00
H2       0.10445    0.64479    0.39035   1.00
H2       0.07608    0.75150    0.39416   1.00
H2       0.08500    0.72360    0.35212   1.00
H2       0.05798    0.70314    0.39085   1.00
H2       0.10735    0.68148    0.53656   1.00
H2       0.07399    0.64421    0.52381   1.00
H2       0.12259    0.64143    0.50834   1.00
H2       0.02617    0.68472    0.49044   1.00
H2       0.05201    0.72637    0.50622   1.00
H2       0.03907    0.72079    0.45657   1.00
C4       0.25302    1.02084    0.25039   1.00
C4       0.25245    0.97912    0.25085   1.00
C3       0.27960    1.04364    0.27254   1.00
C3       0.27595    0.95616    0.27611   1.00
C3       0.22519    1.04123    0.22704   1.00
C3       0.22718    0.95886    0.22466   1.00
C2       0.25102    1.10512    0.24938   1.00
C2       0.24898    0.89488    0.25062   1.00
C3       0.27851    1.08462    0.27223   1.00
C3       0.27454    0.91519    0.27576   1.00
C3       0.22504    1.08258    0.22657   1.00
C3       0.22499    0.91762    0.22594   1.00
H1       0.30062    1.03115    0.28943   1.00
H1       0.29460    0.96852    0.29567   1.00
C5       0.19780    1.02020    0.20419   1.00
C5       0.20397    0.97980    0.19758   1.00
H1       0.29828    1.09955    0.28906   1.00
H1       0.29245    0.90010    0.29445   1.00
H1       0.20563    1.09680    0.20886   1.00
H1       0.20496    0.90368    0.20878   1.00
O3       0.16709    1.03961    0.18697   1.00
O3       0.18540    0.96099    0.16711   1.00
Si1      0.12522    1.04247    0.20954   1.00
Si1      0.20966    0.95279    0.12696   1.00
C6       0.10265    1.07538    0.17696   1.00
C6       0.10330    0.99598    0.20727   1.00
C6       0.12890    1.06253    0.25685   1.00
C6       0.25923    0.96693    0.12504   1.00
C6       0.20618    0.90198    0.12145   1.00
C6       0.18344    0.97477    0.08859   1.00
C6       0.12748    1.11194    0.16512   1.00
H2       0.10017    1.05791    0.15042   1.00
C6       0.06052    1.09147    0.18506   1.00
H2       0.11686    0.98358    0.18126   1.00
C6       0.11170    0.96634    0.24096   1.00
C6       0.05828    0.99336    0.20004   1.00
H2       0.14700    1.08831    0.25182   1.00
C6       0.09036    1.07772    0.27622   1.00
C6       0.14943    1.03849    0.29009   1.00
C6       0.26940    1.01071    0.13295   1.00
C6       0.29060    0.94225    0.14734   1.00
H2       0.26642    0.96212    0.09438   1.00
H2       0.22445    0.89051    0.14486   1.00
C6       0.16483    0.88378    0.12831   1.00
C6       0.22207    0.88393    0.08266   1.00
H2       0.16045    0.95375    0.08191   1.00
C6       0.16153    1.01336    0.09863   1.00
C6       0.20531    0.98244    0.04920   1.00
H2       0.15570    1.10346    0.15296   1.00
H2       0.13283    1.13090    0.19020   1.00
H2       0.11269    1.12917    0.14270   1.00
H2       0.04511    1.09608    0.15749   1.00
H2       0.04292    1.07178    0.20261   1.00
H2       0.06100    1.11964    0.19996   1.00
H2       0.10364    0.93672    0.23222   1.00
H2       0.14251    0.96532    0.24856   1.00
H2       0.09496    0.97352    0.26708   1.00
H2       0.04986    1.00862    0.17339   1.00
H2       0.04888    0.96308    0.19627   1.00
H2       0.04196    1.00550    0.22459   1.00
H2       0.06787    1.05514    0.27633   1.00
H2       0.09497    1.08708    0.30641   1.00
H2       0.07921    1.10332    0.26122   1.00
H2       0.12915    1.01902    0.30507   1.00
H2       0.17343    1.02068    0.27982   1.00
H2       0.16140    1.05828    0.31210   1.00
H2       0.27146    1.01688    0.16406   1.00
H2       0.29766    1.01809    0.12011   1.00
H2       0.24801    1.03048    0.12030   1.00
H2       0.32005    0.95125    0.13891   1.00
H2       0.28854    0.94574    0.17882   1.00
H2       0.28850    0.91122    0.14057   1.00
H2       0.16691    0.85202    0.13083   1.00
H2       0.15181    0.89435    0.15544   1.00
H2       0.14479    0.89035    0.10445   1.00
H2       0.25150    0.89416    0.07608   1.00
H2       0.22360    0.85212    0.08500   1.00
H2       0.20314    0.89085    0.05798   1.00
H2       0.18148    1.03656    0.10735   1.00
H2       0.14421    1.02381    0.07399   1.00
H2       0.14143    1.00834    0.12259   1.00
H2       0.18472    0.99044    0.02617   1.00
H2       0.22637    1.00622    0.05201   1.00
H2       0.22079    0.95657    0.03907   1.00
C4       -0.02084   0.75039    0.24698   1.00
C4       0.02088    0.75085    0.24755   1.00
C3       -0.04364   0.77254    0.22040   1.00
C3       0.04384    0.77611    0.22405   1.00
C3       -0.04123   0.72704    0.27481   1.00
C3       0.04114    0.72466    0.27282   1.00
C2       -0.10512   0.74938    0.24898   1.00
C2       0.10512    0.75062    0.25102   1.00
C3       -0.08462   0.77223    0.22149   1.00
C3       0.08481    0.77576    0.22546   1.00
C3       -0.08258   0.72657    0.27496   1.00
C3       0.08238    0.72594    0.27501   1.00
H1       -0.03115   0.78943    0.19938   1.00
H1       0.03148    0.79567    0.20540   1.00
C5       -0.02020   0.70419    0.30220   1.00
C5       0.02020    0.69758    0.29603   1.00
H1       -0.09955   0.78906    0.20172   1.00
H1       0.09990    0.79445    0.20755   1.00
H1       -0.09680   0.70886    0.29437   1.00
H1       0.09632    0.70878    0.29504   1.00
O3       -0.03961   0.68697    0.33291   1.00
O3       0.03901    0.66711    0.31460   1.00
Si1      -0.04247   0.70954    0.37478   1.00
Si1      0.04721    0.62696    0.29034   1.00
C6       -0.07538   0.67696    0.39735   1.00
C6       0.00402    0.70727    0.39670   1.00
C6       -0.06253   0.75685    0.37110   1.00
C6       0.03307    0.62504    0.24077   1.00
C6       0.09802    0.62145    0.29382   1.00
C6       0.02523    0.58859    0.31656   1.00
C6       -0.11194   0.66512    0.37252   1.00
H2       -0.05791   0.65042    0.39983   1.00
C6       -0.09147   0.68506    0.43948   1.00
H2       0.01642    0.68126    0.38314   1.00
C6       0.03366    0.74096    0.38830   1.00
C6       0.00664    0.70004    0.44172   1.00
H2       -0.08831   0.75182    0.35300   1.00
C6       -0.07772   0.77622    0.40964   1.00
C6       -0.03849   0.79009    0.35057   1.00
C6       -0.01071   0.63295    0.23060   1.00
C6       0.05775    0.64734    0.20940   1.00
H2       0.03788    0.59438    0.23358   1.00
H2       0.10949    0.64486    0.27555   1.00
C6       0.11622    0.62831    0.33517   1.00
C6       0.11607    0.58266    0.27793   1.00
H2       0.04625    0.58191    0.33955   1.00
C6       -0.01336   0.59863    0.33847   1.00
C6       0.01756    0.54920    0.29469   1.00
H2       -0.10346   0.65296    0.34430   1.00
H2       -0.13090   0.69020    0.36717   1.00
H2       -0.12917   0.64270    0.38731   1.00
H2       -0.09608   0.65749    0.45489   1.00
H2       -0.07178   0.70261    0.45708   1.00
H2       -0.11964   0.69996    0.43900   1.00
H2       0.06328    0.73222    0.39636   1.00
H2       0.03468    0.74856    0.35749   1.00
H2       0.02648    0.76708    0.40504   1.00
H2       -0.00862   0.67339    0.45014   1.00
H2       0.03692    0.69627    0.45112   1.00
H2       -0.00550   0.72459    0.45804   1.00
H2       -0.05514   0.77633    0.43213   1.00
H2       -0.08708   0.80641    0.40503   1.00
H2       -0.10332   0.76122    0.42079   1.00
H2       -0.01902   0.80507    0.37085   1.00
H2       -0.02068   0.77982    0.32657   1.00
H2       -0.05828   0.81210    0.33860   1.00
H2       -0.01688   0.66406    0.22854   1.00
H2       -0.01809   0.62011    0.20234   1.00
H2       -0.03048   0.62030    0.25199   1.00
H2       0.04875    0.63891    0.17995   1.00
H2       0.05426    0.67882    0.21146   1.00
H2       0.08878    0.64057    0.21150   1.00
H2       0.14798    0.63083    0.33309   1.00
H2       0.10565    0.65544    0.34819   1.00
H2       0.10965    0.60445    0.35521   1.00
H2       0.10584    0.57608    0.24850   1.00
H2       0.14788    0.58500    0.27640   1.00
H2       0.10915    0.55798    0.29686   1.00
H2       -0.03656   0.60735    0.31852   1.00
H2       -0.02381   0.57399    0.35579   1.00
H2       -0.00834   0.62259    0.35857   1.00
H2       0.00956    0.52617    0.31528   1.00
H2       -0.00622   0.55201    0.27363   1.00
H2       0.04343    0.53907    0.27921   1.00
C4       0.52084    0.75039    0.25302   1.00
C4       0.47912    0.75085    0.25245   1.00
C3       0.54364    0.77254    0.27960   1.00
C3       0.45616    0.77611    0.27595   1.00
C3       0.54123    0.72704    0.22519   1.00
C3       0.45886    0.72466    0.22718   1.00
C2       0.60512    0.74938    0.25102   1.00
C2       0.39488    0.75062    0.24898   1.00
C3       0.58462    0.77223    0.27851   1.00
C3       0.41519    0.77576    0.27454   1.00
C3       0.58258    0.72657    0.22504   1.00
C3       0.41762    0.72594    0.22499   1.00
H1       0.53115    0.78943    0.30062   1.00
H1       0.46852    0.79567    0.29460   1.00
C5       0.52020    0.70419    0.19780   1.00
C5       0.47980    0.69758    0.20397   1.00
H1       0.59955    0.78906    0.29828   1.00
H1       0.40010    0.79445    0.29245   1.00
H1       0.59680    0.70886    0.20563   1.00
H1       0.40368    0.70878    0.20496   1.00
O3       0.53961    0.68697    0.16709   1.00
O3       0.46099    0.66711    0.18540   1.00
Si1      0.54247    0.70954    0.12522   1.00
Si1      0.45279    0.62696    0.20966   1.00
C6       0.57538    0.67696    0.10265   1.00
C6       0.49598    0.70727    0.10330   1.00
C6       0.56253    0.75685    0.12890   1.00
C6       0.46693    0.62504    0.25923   1.00
C6       0.40198    0.62145    0.20618   1.00
C6       0.47477    0.58859    0.18344   1.00
C6       0.61194    0.66512    0.12748   1.00
H2       0.55791    0.65042    0.10017   1.00
C6       0.59147    0.68506    0.06052   1.00
H2       0.48358    0.68126    0.11686   1.00
C6       0.46634    0.74096    0.11170   1.00
C6       0.49336    0.70004    0.05828   1.00
H2       0.58831    0.75182    0.14700   1.00
C6       0.57772    0.77622    0.09036   1.00
C6       0.53849    0.79009    0.14943   1.00
C6       0.51071    0.63295    0.26940   1.00
C6       0.44225    0.64734    0.29060   1.00
H2       0.46212    0.59438    0.26642   1.00
H2       0.39051    0.64486    0.22445   1.00
C6       0.38378    0.62831    0.16483   1.00
C6       0.38393    0.58266    0.22207   1.00
H2       0.45375    0.58191    0.16045   1.00
C6       0.51336    0.59863    0.16153   1.00
C6       0.48244    0.54920    0.20531   1.00
H2       0.60346    0.65296    0.15570   1.00
H2       0.63090    0.69020    0.13283   1.00
H2       0.62917    0.64270    0.11269   1.00
H2       0.59608    0.65749    0.04511   1.00
H2       0.57178    0.70261    0.04292   1.00
H2       0.61964    0.69996    0.06100   1.00
H2       0.43672    0.73222    0.10364   1.00
H2       0.46532    0.74856    0.14251   1.00
H2       0.47352    0.76708    0.09496   1.00
H2       0.50862    0.67339    0.04986   1.00
H2       0.46308    0.69627    0.04888   1.00
H2       0.50550    0.72459    0.04196   1.00
H2       0.55514    0.77633    0.06787   1.00
H2       0.58708    0.80641    0.09497   1.00
H2       0.60332    0.76122    0.07921   1.00
H2       0.51902    0.80507    0.12915   1.00
H2       0.52068    0.77982    0.17343   1.00
H2       0.55828    0.81210    0.16140   1.00
H2       0.51688    0.66406    0.27146   1.00
H2       0.51809    0.62011    0.29766   1.00
H2       0.53048    0.62030    0.24801   1.00
H2       0.45125    0.63891    0.32005   1.00
H2       0.44574    0.67882    0.28854   1.00
H2       0.41122    0.64057    0.28850   1.00
H2       0.35202    0.63083    0.16691   1.00
H2       0.39435    0.65544    0.15181   1.00
H2       0.39035    0.60445    0.14479   1.00
H2       0.39416    0.57608    0.25150   1.00
H2       0.35212    0.58500    0.22360   1.00
H2       0.39085    0.55798    0.20314   1.00
H2       0.53656    0.60735    0.18148   1.00
H2       0.52381    0.57399    0.14421   1.00
H2       0.50834    0.62259    0.14143   1.00
H2       0.49044    0.52617    0.18472   1.00
H2       0.50622    0.55201    0.22637   1.00
H2       0.45657    0.53907    0.22079   1.00
C4       0.24698    0.47916    0.25039   1.00
C4       0.24755    0.52088    0.25085   1.00
C3       0.22040    0.45636    0.27254   1.00
C3       0.22405    0.54384    0.27611   1.00
C3       0.27481    0.45877    0.22704   1.00
C3       0.27282    0.54114    0.22466   1.00
C2       0.24898    0.39488    0.24938   1.00
C2       0.25102    0.60512    0.25062   1.00
C3       0.22149    0.41538    0.27223   1.00
C3       0.22546    0.58481    0.27576   1.00
C3       0.27496    0.41742    0.22657   1.00
C3       0.27501    0.58238    0.22594   1.00
H1       0.19938    0.46885    0.28943   1.00
H1       0.20540    0.53148    0.29567   1.00
C5       0.30220    0.47980    0.20419   1.00
C5       0.29603    0.52020    0.19758   1.00
H1       0.20172    0.40045    0.28906   1.00
H1       0.20755    0.59990    0.29445   1.00
H1       0.29437    0.40320    0.20886   1.00
H1       0.29504    0.59632    0.20878   1.00
O3       0.33291    0.46039    0.18697   1.00
O3       0.31460    0.53901    0.16711   1.00
Si1      0.37478    0.45753    0.20954   1.00
Si1      0.29034    0.54721    0.12696   1.00
C6       0.39735    0.42462    0.17696   1.00
C6       0.39670    0.50402    0.20727   1.00
C6       0.37110    0.43747    0.25685   1.00
C6       0.24077    0.53307    0.12504   1.00
C6       0.29382    0.59802    0.12145   1.00
C6       0.31656    0.52523    0.08859   1.00
C6       0.37252    0.38806    0.16512   1.00
H2       0.39983    0.44209    0.15042   1.00
C6       0.43948    0.40853    0.18506   1.00
H2       0.38314    0.51642    0.18126   1.00
C6       0.38830    0.53366    0.24096   1.00
C6       0.44172    0.50664    0.20004   1.00
H2       0.35300    0.41169    0.25182   1.00
C6       0.40964    0.42228    0.27622   1.00
C6       0.35057    0.46151    0.29009   1.00
C6       0.23060    0.48929    0.13295   1.00
C6       0.20940    0.55775    0.14734   1.00
H2       0.23358    0.53788    0.09438   1.00
H2       0.27555    0.60949    0.14486   1.00
C6       0.33517    0.61622    0.12831   1.00
C6       0.27793    0.61607    0.08266   1.00
H2       0.33955    0.54625    0.08191   1.00
C6       0.33847    0.48664    0.09863   1.00
C6       0.29469    0.51756    0.04920   1.00
H2       0.34430    0.39654    0.15296   1.00
H2       0.36717    0.36910    0.19020   1.00
H2       0.38731    0.37083    0.14270   1.00
H2       0.45489    0.40392    0.15749   1.00
H2       0.45708    0.42822    0.20261   1.00
H2       0.43900    0.38036    0.19996   1.00
H2       0.39636    0.56328    0.23222   1.00
H2       0.35749    0.53468    0.24856   1.00
H2       0.40504    0.52648    0.26708   1.00
H2       0.45014    0.49138    0.17339   1.00
H2       0.45112    0.53692    0.19627   1.00
H2       0.45804    0.49450    0.22459   1.00
H2       0.43213    0.44486    0.27633   1.00
H2       0.40503    0.41292    0.30641   1.00
H2       0.42079    0.39668    0.26122   1.00
H2       0.37085    0.48098    0.30507   1.00
H2       0.32657    0.47932    0.27982   1.00
H2       0.33860    0.44172    0.31210   1.00
H2       0.22854    0.48312    0.16406   1.00
H2       0.20234    0.48191    0.12011   1.00
H2       0.25199    0.46952    0.12030   1.00
H2       0.17995    0.54875    0.13891   1.00
H2       0.21146    0.55426    0.17882   1.00
H2       0.21150    0.58878    0.14057   1.00
H2       0.33309    0.64798    0.13083   1.00
H2       0.34819    0.60565    0.15544   1.00
H2       0.35521    0.60965    0.10445   1.00
H2       0.24850    0.60584    0.07608   1.00
H2       0.27640    0.64788    0.08500   1.00
H2       0.29686    0.60915    0.05798   1.00
H2       0.31852    0.46344    0.10735   1.00
H2       0.35579    0.47619    0.07399   1.00
H2       0.35857    0.49166    0.12259   1.00
H2       0.31528    0.50956    0.02617   1.00
H2       0.27363    0.49378    0.05201   1.00
H2       0.27921    0.54343    0.03907   1.00
C4       0.25039    0.74698    -0.02084   1.00
C4       0.25085    0.74755    0.02088   1.00
C3       0.27254    0.72040    -0.04364   1.00
C3       0.27611    0.72405    0.04384   1.00
C3       0.22704    0.77481    -0.04123   1.00
C3       0.22466    0.77282    0.04114   1.00
C2       0.24938    0.74898    -0.10512   1.00
C2       0.25062    0.75102    0.10512   1.00
C3       0.27223    0.72149    -0.08462   1.00
C3       0.27576    0.72546    0.08481   1.00
C3       0.22657    0.77496    -0.08258   1.00
C3       0.22594    0.77501    0.08238   1.00
H1       0.28943    0.69938    -0.03115   1.00
H1       0.29567    0.70540    0.03148   1.00
C5       0.20419    0.80220    -0.02020   1.00
C5       0.19758    0.79603    0.02020   1.00
H1       0.28906    0.70172    -0.09955   1.00
H1       0.29445    0.70755    0.09990   1.00
H1       0.20886    0.79437    -0.09680   1.00
H1       0.20878    0.79504    0.09632   1.00
O3       0.18697    0.83291    -0.03961   1.00
O3       0.16711    0.81460    0.03901   1.00
Si1      0.20954    0.87478    -0.04247   1.00
Si1      0.12696    0.79034    0.04721   1.00
C6       0.17696    0.89735    -0.07538   1.00
C6       0.20727    0.89670    0.00402   1.00
C6       0.25685    0.87110    -0.06253   1.00
C6       0.12504    0.74077    0.03307   1.00
C6       0.12145    0.79382    0.09802   1.00
C6       0.08859    0.81656    0.02523   1.00
C6       0.16512    0.87252    -0.11194   1.00
H2       0.15042    0.89983    -0.05791   1.00
C6       0.18506    0.93948    -0.09147   1.00
H2       0.18126    0.88314    0.01642   1.00
C6       0.24096    0.88830    0.03366   1.00
C6       0.20004    0.94172    0.00664   1.00
H2       0.25182    0.85300    -0.08831   1.00
C6       0.27622    0.90964    -0.07772   1.00
C6       0.29009    0.85057    -0.03849   1.00
C6       0.13295    0.73060    -0.01071   1.00
C6       0.14734    0.70940    0.05775   1.00
H2       0.09438    0.73358    0.03788   1.00
H2       0.14486    0.77555    0.10949   1.00
C6       0.12831    0.83517    0.11622   1.00
C6       0.08266    0.77793    0.11607   1.00
H2       0.08191    0.83955    0.04625   1.00
C6       0.09863    0.83847    -0.01336   1.00
C6       0.04920    0.79469    0.01756   1.00
H2       0.15296    0.84430    -0.10346   1.00
H2       0.19020    0.86717    -0.13090   1.00
H2       0.14270    0.88731    -0.12917   1.00
H2       0.15749    0.95489    -0.09608   1.00
H2       0.20261    0.95708    -0.07178   1.00
H2       0.19996    0.93900    -0.11964   1.00
H2       0.23222    0.89636    0.06328   1.00
H2       0.24856    0.85749    0.03468   1.00
H2       0.26708    0.90504    0.02648   1.00
H2       0.17339    0.95014    -0.00862   1.00
H2       0.19627    0.95112    0.03692   1.00
H2       0.22459    0.95804    -0.00550   1.00
H2       0.27633    0.93213    -0.05514   1.00
H2       0.30641    0.90503    -0.08708   1.00
H2       0.26122    0.92079    -0.10332   1.00
H2       0.30507    0.87085    -0.01902   1.00
H2       0.27982    0.82657    -0.02068   1.00
H2       0.31210    0.83860    -0.05828   1.00
H2       0.16406    0.72854    -0.01688   1.00
H2       0.12011    0.70234    -0.01809   1.00
H2       0.12030    0.75199    -0.03048   1.00
H2       0.13891    0.67995    0.04875   1.00
H2       0.17882    0.71146    0.05426   1.00
H2       0.14057    0.71150    0.08878   1.00
H2       0.13083    0.83309    0.14798   1.00
H2       0.15544    0.84819    0.10565   1.00
H2       0.10445    0.85521    0.10965   1.00
H2       0.07608    0.74850    0.10584   1.00
H2       0.08500    0.77640    0.14788   1.00
H2       0.05798    0.79686    0.10915   1.00
H2       0.10735    0.81852    -0.03656   1.00
H2       0.07399    0.85579    -0.02381   1.00
H2       0.12259    0.85857    -0.00834   1.00
H2       0.02617    0.81528    0.00956   1.00
H2       0.05201    0.77363    -0.00622   1.00
H2       0.03907    0.77921    0.04343   1.00
C4       0.75039    0.25302    0.52084   1.00
C4       0.75085    0.25245    0.47912   1.00
C3       0.77254    0.27960    0.54364   1.00
C3       0.77611    0.27595    0.45616   1.00
C3       0.72704    0.22519    0.54123   1.00
C3       0.72466    0.22718    0.45886   1.00
C2       0.74938    0.25102    0.60512   1.00
C2       0.75062    0.24898    0.39488   1.00
C3       0.77223    0.27851    0.58462   1.00
C3       0.77576    0.27454    0.41519   1.00
C3       0.72657    0.22504    0.58258   1.00
C3       0.72594    0.22499    0.41762   1.00
H1       0.78943    0.30062    0.53115   1.00
H1       0.79567    0.29460    0.46852   1.00
C5       0.70419    0.19780    0.52020   1.00
C5       0.69758    0.20397    0.47980   1.00
H1       0.78906    0.29828    0.59955   1.00
H1       0.79445    0.29245    0.40010   1.00
H1       0.70886    0.20563    0.59680   1.00
H1       0.70878    0.20496    0.40368   1.00
O3       0.68697    0.16709    0.53961   1.00
O3       0.66711    0.18540    0.46099   1.00
Si1      0.70954    0.12522    0.54247   1.00
Si1      0.62696    0.20966    0.45279   1.00
C6       0.67696    0.10265    0.57538   1.00
C6       0.70727    0.10330    0.49598   1.00
C6       0.75685    0.12890    0.56253   1.00
C6       0.62504    0.25923    0.46693   1.00
C6       0.62145    0.20618    0.40198   1.00
C6       0.58859    0.18344    0.47477   1.00
C6       0.66512    0.12748    0.61194   1.00
H2       0.65042    0.10017    0.55791   1.00
C6       0.68506    0.06052    0.59147   1.00
H2       0.68126    0.11686    0.48358   1.00
C6       0.74096    0.11170    0.46634   1.00
C6       0.70004    0.05828    0.49336   1.00
H2       0.75182    0.14700    0.58831   1.00
C6       0.77622    0.09036    0.57772   1.00
C6       0.79009    0.14943    0.53849   1.00
C6       0.63295    0.26940    0.51071   1.00
C6       0.64734    0.29060    0.44225   1.00
H2       0.59438    0.26642    0.46212   1.00
H2       0.64486    0.22445    0.39051   1.00
C6       0.62831    0.16483    0.38378   1.00
C6       0.58266    0.22207    0.38393   1.00
H2       0.58191    0.16045    0.45375   1.00
C6       0.59863    0.16153    0.51336   1.00
C6       0.54920    0.20531    0.48244   1.00
H2       0.65296    0.15570    0.60346   1.00
H2       0.69020    0.13283    0.63090   1.00
H2       0.64270    0.11269    0.62917   1.00
H2       0.65749    0.04511    0.59608   1.00
H2       0.70261    0.04292    0.57178   1.00
H2       0.69996    0.06100    0.61964   1.00
H2       0.73222    0.10364    0.43672   1.00
H2       0.74856    0.14251    0.46532   1.00
H2       0.76708    0.09496    0.47352   1.00
H2       0.67339    0.04986    0.50862   1.00
H2       0.69627    0.04888    0.46308   1.00
H2       0.72459    0.04196    0.50550   1.00
H2       0.77633    0.06787    0.55514   1.00
H2       0.80641    0.09497    0.58708   1.00
H2       0.76122    0.07921    0.60332   1.00
H2       0.80507    0.12915    0.51902   1.00
H2       0.77982    0.17343    0.52068   1.00
H2       0.81210    0.16140    0.55828   1.00
H2       0.66406    0.27146    0.51688   1.00
H2       0.62011    0.29766    0.51809   1.00
H2       0.62030    0.24801    0.53048   1.00
H2       0.63891    0.32005    0.45125   1.00
H2       0.67882    0.28854    0.44574   1.00
H2       0.64057    0.28850    0.41122   1.00
H2       0.63083    0.16691    0.35202   1.00
H2       0.65544    0.15181    0.39435   1.00
H2       0.60445    0.14479    0.39035   1.00
H2       0.57608    0.25150    0.39416   1.00
H2       0.58500    0.22360    0.35212   1.00
H2       0.55798    0.20314    0.39085   1.00
H2       0.60735    0.18148    0.53656   1.00
H2       0.57399    0.14421    0.52381   1.00
H2       0.62259    0.14143    0.50834   1.00
H2       0.52617    0.18472    0.49044   1.00
H2       0.55201    0.22637    0.50622   1.00
H2       0.53907    0.22079    0.45657   1.00
C4       0.75302    0.52084    0.25039   1.00
C4       0.75245    0.47912    0.25085   1.00
C3       0.77960    0.54364    0.27254   1.00
C3       0.77595    0.45616    0.27611   1.00
C3       0.72519    0.54123    0.22704   1.00
C3       0.72718    0.45886    0.22466   1.00
C2       0.75102    0.60512    0.24938   1.00
C2       0.74898    0.39488    0.25062   1.00
C3       0.77851    0.58462    0.27223   1.00
C3       0.77454    0.41519    0.27576   1.00
C3       0.72504    0.58258    0.22657   1.00
C3       0.72499    0.41762    0.22594   1.00
H1       0.80062    0.53115    0.28943   1.00
H1       0.79460    0.46852    0.29567   1.00
C5       0.69780    0.52020    0.20419   1.00
C5       0.70397    0.47980    0.19758   1.00
H1       0.79828    0.59955    0.28906   1.00
H1       0.79245    0.40010    0.29445   1.00
H1       0.70563    0.59680    0.20886   1.00
H1       0.70496    0.40368    0.20878   1.00
O3       0.66709    0.53961    0.18697   1.00
O3       0.68540    0.46099    0.16711   1.00
Si1      0.62522    0.54247    0.20954   1.00
Si1      0.70966    0.45279    0.12696   1.00
C6       0.60265    0.57538    0.17696   1.00
C6       0.60330    0.49598    0.20727   1.00
C6       0.62890    0.56253    0.25685   1.00
C6       0.75923    0.46693    0.12504   1.00
C6       0.70618    0.40198    0.12145   1.00
C6       0.68344    0.47477    0.08859   1.00
C6       0.62748    0.61194    0.16512   1.00
H2       0.60017    0.55791    0.15042   1.00
C6       0.56052    0.59147    0.18506   1.00
H2       0.61686    0.48358    0.18126   1.00
C6       0.61170    0.46634    0.24096   1.00
C6       0.55828    0.49336    0.20004   1.00
H2       0.64700    0.58831    0.25182   1.00
C6       0.59036    0.57772    0.27622   1.00
C6       0.64943    0.53849    0.29009   1.00
C6       0.76940    0.51071    0.13295   1.00
C6       0.79060    0.44225    0.14734   1.00
H2       0.76642    0.46212    0.09438   1.00
H2       0.72445    0.39051    0.14486   1.00
C6       0.66483    0.38378    0.12831   1.00
C6       0.72207    0.38393    0.08266   1.00
H2       0.66045    0.45375    0.08191   1.00
C6       0.66153    0.51336    0.09863   1.00
C6       0.70531    0.48244    0.04920   1.00
H2       0.65570    0.60346    0.15296   1.00
H2       0.63283    0.63090    0.19020   1.00
H2       0.61269    0.62917    0.14270   1.00
H2       0.54511    0.59608    0.15749   1.00
H2       0.54292    0.57178    0.20261   1.00
H2       0.56100    0.61964    0.19996   1.00
H2       0.60364    0.43672    0.23222   1.00
H2       0.64251    0.46532    0.24856   1.00
H2       0.59496    0.47352    0.26708   1.00
H2       0.54986    0.50862    0.17339   1.00
H2       0.54888    0.46308    0.19627   1.00
H2       0.54196    0.50550    0.22459   1.00
H2       0.56787    0.55514    0.27633   1.00
H2       0.59497    0.58708    0.30641   1.00
H2       0.57921    0.60332    0.26122   1.00
H2       0.62915    0.51902    0.30507   1.00
H2       0.67343    0.52068    0.27982   1.00
H2       0.66140    0.55828    0.31210   1.00
H2       0.77146    0.51688    0.16406   1.00
H2       0.79766    0.51809    0.12011   1.00
H2       0.74801    0.53048    0.12030   1.00
H2       0.82005    0.45125    0.13891   1.00
H2       0.78854    0.44574    0.17882   1.00
H2       0.78850    0.41122    0.14057   1.00
H2       0.66691    0.35202    0.13083   1.00
H2       0.65181    0.39435    0.15544   1.00
H2       0.64479    0.39035    0.10445   1.00
H2       0.75150    0.39416    0.07608   1.00
H2       0.72360    0.35212    0.08500   1.00
H2       0.70314    0.39085    0.05798   1.00
H2       0.68148    0.53656    0.10735   1.00
H2       0.64421    0.52381    0.07399   1.00
H2       0.64143    0.50834    0.12259   1.00
H2       0.68472    0.49044    0.02617   1.00
H2       0.72637    0.50622    0.05201   1.00
H2       0.72079    0.45657    0.03907   1.00
C4       0.47916    0.25039    0.24698   1.00
C4       0.52088    0.25085    0.24755   1.00
C3       0.45636    0.27254    0.22040   1.00
C3       0.54384    0.27611    0.22405   1.00
C3       0.45877    0.22704    0.27481   1.00
C3       0.54114    0.22466    0.27282   1.00
C2       0.39488    0.24938    0.24898   1.00
C2       0.60512    0.25062    0.25102   1.00
C3       0.41538    0.27223    0.22149   1.00
C3       0.58481    0.27576    0.22546   1.00
C3       0.41742    0.22657    0.27496   1.00
C3       0.58238    0.22594    0.27501   1.00
H1       0.46885    0.28943    0.19938   1.00
H1       0.53148    0.29567    0.20540   1.00
C5       0.47980    0.20419    0.30220   1.00
C5       0.52020    0.19758    0.29603   1.00
H1       0.40045    0.28906    0.20172   1.00
H1       0.59990    0.29445    0.20755   1.00
H1       0.40320    0.20886    0.29437   1.00
H1       0.59632    0.20878    0.29504   1.00
O3       0.46039    0.18697    0.33291   1.00
O3       0.53901    0.16711    0.31460   1.00
Si1      0.45753    0.20954    0.37478   1.00
Si1      0.54721    0.12696    0.29034   1.00
C6       0.42462    0.17696    0.39735   1.00
C6       0.50402    0.20727    0.39670   1.00
C6       0.43747    0.25685    0.37110   1.00
C6       0.53307    0.12504    0.24077   1.00
C6       0.59802    0.12145    0.29382   1.00
C6       0.52523    0.08859    0.31656   1.00
C6       0.38806    0.16512    0.37252   1.00
H2       0.44209    0.15042    0.39983   1.00
C6       0.40853    0.18506    0.43948   1.00
H2       0.51642    0.18126    0.38314   1.00
C6       0.53366    0.24096    0.38830   1.00
C6       0.50664    0.20004    0.44172   1.00
H2       0.41169    0.25182    0.35300   1.00
C6       0.42228    0.27622    0.40964   1.00
C6       0.46151    0.29009    0.35057   1.00
C6       0.48929    0.13295    0.23060   1.00
C6       0.55775    0.14734    0.20940   1.00
H2       0.53788    0.09438    0.23358   1.00
H2       0.60949    0.14486    0.27555   1.00
C6       0.61622    0.12831    0.33517   1.00
C6       0.61607    0.08266    0.27793   1.00
H2       0.54625    0.08191    0.33955   1.00
C6       0.48664    0.09863    0.33847   1.00
C6       0.51756    0.04920    0.29469   1.00
H2       0.39654    0.15296    0.34430   1.00
H2       0.36910    0.19020    0.36717   1.00
H2       0.37083    0.14270    0.38731   1.00
H2       0.40392    0.15749    0.45489   1.00
H2       0.42822    0.20261    0.45708   1.00
H2       0.38036    0.19996    0.43900   1.00
H2       0.56328    0.23222    0.39636   1.00
H2       0.53468    0.24856    0.35749   1.00
H2       0.52648    0.26708    0.40504   1.00
H2       0.49138    0.17339    0.45014   1.00
H2       0.53692    0.19627    0.45112   1.00
H2       0.49450    0.22459    0.45804   1.00
H2       0.44486    0.27633    0.43213   1.00
H2       0.41292    0.30641    0.40503   1.00
H2       0.39668    0.26122    0.42079   1.00
H2       0.48098    0.30507    0.37085   1.00
H2       0.47932    0.27982    0.32657   1.00
H2       0.44172    0.31210    0.33860   1.00
H2       0.48312    0.16406    0.22854   1.00
H2       0.48191    0.12011    0.20234   1.00
H2       0.46952    0.12030    0.25199   1.00
H2       0.54875    0.13891    0.17995   1.00
H2       0.55426    0.17882    0.21146   1.00
H2       0.58878    0.14057    0.21150   1.00
H2       0.64798    0.13083    0.33309   1.00
H2       0.60565    0.15544    0.34819   1.00
H2       0.60965    0.10445    0.35521   1.00
H2       0.60584    0.07608    0.24850   1.00
H2       0.64788    0.08500    0.27640   1.00
H2       0.60915    0.05798    0.29686   1.00
H2       0.46344    0.10735    0.31852   1.00
H2       0.47619    0.07399    0.35579   1.00
H2       0.49166    0.12259    0.35857   1.00
H2       0.50956    0.02617    0.31528   1.00
H2       0.49378    0.05201    0.27363   1.00
H2       0.54343    0.03907    0.27921   1.00
C4       1.02084    0.25039    0.25302   1.00
C4       0.97912    0.25085    0.25245   1.00
C3       1.04364    0.27254    0.27960   1.00
C3       0.95616    0.27611    0.27595   1.00
C3       1.04123    0.22704    0.22519   1.00
C3       0.95886    0.22466    0.22718   1.00
C2       1.10512    0.24938    0.25102   1.00
C2       0.89488    0.25062    0.24898   1.00
C3       1.08462    0.27223    0.27851   1.00
C3       0.91519    0.27576    0.27454   1.00
C3       1.08258    0.22657    0.22504   1.00
C3       0.91762    0.22594    0.22499   1.00
H1       1.03115    0.28943    0.30062   1.00
H1       0.96852    0.29567    0.29460   1.00
C5       1.02020    0.20419    0.19780   1.00
C5       0.97980    0.19758    0.20397   1.00
H1       1.09955    0.28906    0.29828   1.00
H1       0.90010    0.29445    0.29245   1.00
H1       1.09680    0.20886    0.20563   1.00
H1       0.90368    0.20878    0.20496   1.00
O3       1.03961    0.18697    0.16709   1.00
O3       0.96099    0.16711    0.18540   1.00
Si1      1.04247    0.20954    0.12522   1.00
Si1      0.95279    0.12696    0.20966   1.00
C6       1.07538    0.17696    0.10265   1.00
C6       0.99598    0.20727    0.10330   1.00
C6       1.06253    0.25685    0.12890   1.00
C6       0.96693    0.12504    0.25923   1.00
C6       0.90198    0.12145    0.20618   1.00
C6       0.97477    0.08859    0.18344   1.00
C6       1.11194    0.16512    0.12748   1.00
H2       1.05791    0.15042    0.10017   1.00
C6       1.09147    0.18506    0.06052   1.00
H2       0.98358    0.18126    0.11686   1.00
C6       0.96634    0.24096    0.11170   1.00
C6       0.99336    0.20004    0.05828   1.00
H2       1.08831    0.25182    0.14700   1.00
C6       1.07772    0.27622    0.09036   1.00
C6       1.03849    0.29009    0.14943   1.00
C6       1.01071    0.13295    0.26940   1.00
C6       0.94225    0.14734    0.29060   1.00
H2       0.96212    0.09438    0.26642   1.00
H2       0.89051    0.14486    0.22445   1.00
C6       0.88378    0.12831    0.16483   1.00
C6       0.88393    0.08266    0.22207   1.00
H2       0.95375    0.08191    0.16045   1.00
C6       1.01336    0.09863    0.16153   1.00
C6       0.98244    0.04920    0.20531   1.00
H2       1.10346    0.15296    0.15570   1.00
H2       1.13090    0.19020    0.13283   1.00
H2       1.12917    0.14270    0.11269   1.00
H2       1.09608    0.15749    0.04511   1.00
H2       1.07178    0.20261    0.04292   1.00
H2       1.11964    0.19996    0.06100   1.00
H2       0.93672    0.23222    0.10364   1.00
H2       0.96532    0.24856    0.14251   1.00
H2       0.97352    0.26708    0.09496   1.00
H2       1.00862    0.17339    0.04986   1.00
H2       0.96308    0.19627    0.04888   1.00
H2       1.00550    0.22459    0.04196   1.00
H2       1.05514    0.27633    0.06787   1.00
H2       1.08708    0.30641    0.09497   1.00
H2       1.10332    0.26122    0.07921   1.00
H2       1.01902    0.30507    0.12915   1.00
H2       1.02068    0.27982    0.17343   1.00
H2       1.05828    0.31210    0.16140   1.00
H2       1.01688    0.16406    0.27146   1.00
H2       1.01809    0.12011    0.29766   1.00
H2       1.03048    0.12030    0.24801   1.00
H2       0.95125    0.13891    0.32005   1.00
H2       0.94574    0.17882    0.28854   1.00
H2       0.91122    0.14057    0.28850   1.00
H2       0.85202    0.13083    0.16691   1.00
H2       0.89435    0.15544    0.15181   1.00
H2       0.89035    0.10445    0.14479   1.00
H2       0.89416    0.07608    0.25150   1.00
H2       0.85212    0.08500    0.22360   1.00
H2       0.89085    0.05798    0.20314   1.00
H2       1.03656    0.10735    0.18148   1.00
H2       1.02381    0.07399    0.14421   1.00
H2       1.00834    0.12259    0.14143   1.00
H2       0.99044    0.02617    0.18472   1.00
H2       1.00622    0.05201    0.22637   1.00
H2       0.95657    0.03907    0.22079   1.00
C4       0.74698    -0.02084   0.25039   1.00
C4       0.74755    0.02088    0.25085   1.00
C3       0.72040    -0.04364   0.27254   1.00
C3       0.72405    0.04384    0.27611   1.00
C3       0.77481    -0.04123   0.22704   1.00
C3       0.77282    0.04114    0.22466   1.00
C2       0.74898    -0.10512   0.24938   1.00
C2       0.75102    0.10512    0.25062   1.00
C3       0.72149    -0.08462   0.27223   1.00
C3       0.72546    0.08481    0.27576   1.00
C3       0.77496    -0.08258   0.22657   1.00
C3       0.77501    0.08238    0.22594   1.00
H1       0.69938    -0.03115   0.28943   1.00
H1       0.70540    0.03148    0.29567   1.00
C5       0.80220    -0.02020   0.20419   1.00
C5       0.79603    0.02020    0.19758   1.00
H1       0.70172    -0.09955   0.28906   1.00
H1       0.70755    0.09990    0.29445   1.00
H1       0.79437    -0.09680   0.20886   1.00
H1       0.79504    0.09632    0.20878   1.00
O3       0.83291    -0.03961   0.18697   1.00
O3       0.81460    0.03901    0.16711   1.00
Si1      0.87478    -0.04247   0.20954   1.00
Si1      0.79034    0.04721    0.12696   1.00
C6       0.89735    -0.07538   0.17696   1.00
C6       0.89670    0.00402    0.20727   1.00
C6       0.87110    -0.06253   0.25685   1.00
C6       0.74077    0.03307    0.12504   1.00
C6       0.79382    0.09802    0.12145   1.00
C6       0.81656    0.02523    0.08859   1.00
C6       0.87252    -0.11194   0.16512   1.00
H2       0.89983    -0.05791   0.15042   1.00
C6       0.93948    -0.09147   0.18506   1.00
H2       0.88314    0.01642    0.18126   1.00
C6       0.88830    0.03366    0.24096   1.00
C6       0.94172    0.00664    0.20004   1.00
H2       0.85300    -0.08831   0.25182   1.00
C6       0.90964    -0.07772   0.27622   1.00
C6       0.85057    -0.03849   0.29009   1.00
C6       0.73060    -0.01071   0.13295   1.00
C6       0.70940    0.05775    0.14734   1.00
H2       0.73358    0.03788    0.09438   1.00
H2       0.77555    0.10949    0.14486   1.00
C6       0.83517    0.11622    0.12831   1.00
C6       0.77793    0.11607    0.08266   1.00
H2       0.83955    0.04625    0.08191   1.00
C6       0.83847    -0.01336   0.09863   1.00
C6       0.79469    0.01756    0.04920   1.00
H2       0.84430    -0.10346   0.15296   1.00
H2       0.86717    -0.13090   0.19020   1.00
H2       0.88731    -0.12917   0.14270   1.00
H2       0.95489    -0.09608   0.15749   1.00
H2       0.95708    -0.07178   0.20261   1.00
H2       0.93900    -0.11964   0.19996   1.00
H2       0.89636    0.06328    0.23222   1.00
H2       0.85749    0.03468    0.24856   1.00
H2       0.90504    0.02648    0.26708   1.00
H2       0.95014    -0.00862   0.17339   1.00
H2       0.95112    0.03692    0.19627   1.00
H2       0.95804    -0.00550   0.22459   1.00
H2       0.93213    -0.05514   0.27633   1.00
H2       0.90503    -0.08708   0.30641   1.00
H2       0.92079    -0.10332   0.26122   1.00
H2       0.87085    -0.01902   0.30507   1.00
H2       0.82657    -0.02068   0.27982   1.00
H2       0.83860    -0.05828   0.31210   1.00
H2       0.72854    -0.01688   0.16406   1.00
H2       0.70234    -0.01809   0.12011   1.00
H2       0.75199    -0.03048   0.12030   1.00
H2       0.67995    0.04875    0.13891   1.00
H2       0.71146    0.05426    0.17882   1.00
H2       0.71150    0.08878    0.14057   1.00
H2       0.83309    0.14798    0.13083   1.00
H2       0.84819    0.10565    0.15544   1.00
H2       0.85521    0.10965    0.10445   1.00
H2       0.74850    0.10584    0.07608   1.00
H2       0.77640    0.14788    0.08500   1.00
H2       0.79686    0.10915    0.05798   1.00
H2       0.81852    -0.03656   0.10735   1.00
H2       0.85579    -0.02381   0.07399   1.00
H2       0.85857    -0.00834   0.12259   1.00
H2       0.81528    0.00956    0.02617   1.00
H2       0.77363    -0.00622   0.05201   1.00
H2       0.77921    0.04343    0.03907   1.00
C4       0.75039    0.24698    -0.02084   1.00
C4       0.75085    0.24755    0.02088   1.00
C3       0.77254    0.22040    -0.04364   1.00
C3       0.77611    0.22405    0.04384   1.00
C3       0.72704    0.27481    -0.04123   1.00
C3       0.72466    0.27282    0.04114   1.00
C2       0.74938    0.24898    -0.10512   1.00
C2       0.75062    0.25102    0.10512   1.00
C3       0.77223    0.22149    -0.08462   1.00
C3       0.77576    0.22546    0.08481   1.00
C3       0.72657    0.27496    -0.08258   1.00
C3       0.72594    0.27501    0.08238   1.00
H1       0.78943    0.19938    -0.03115   1.00
H1       0.79567    0.20540    0.03148   1.00
C5       0.70419    0.30220    -0.02020   1.00
C5       0.69758    0.29603    0.02020   1.00
H1       0.78906    0.20172    -0.09955   1.00
H1       0.79445    0.20755    0.09990   1.00
H1       0.70886    0.29437    -0.09680   1.00
H1       0.70878    0.29504    0.09632   1.00
O3       0.68697    0.33291    -0.03961   1.00
O3       0.66711    0.31460    0.03901   1.00
Si1      0.70954    0.37478    -0.04247   1.00
Si1      0.62696    0.29034    0.04721   1.00
C6       0.67696    0.39735    -0.07538   1.00
C6       0.70727    0.39670    0.00402   1.00
C6       0.75685    0.37110    -0.06253   1.00
C6       0.62504    0.24077    0.03307   1.00
C6       0.62145    0.29382    0.09802   1.00
C6       0.58859    0.31656    0.02523   1.00
C6       0.66512    0.37252    -0.11194   1.00
H2       0.65042    0.39983    -0.05791   1.00
C6       0.68506    0.43948    -0.09147   1.00
H2       0.68126    0.38314    0.01642   1.00
C6       0.74096    0.38830    0.03366   1.00
C6       0.70004    0.44172    0.00664   1.00
H2       0.75182    0.35300    -0.08831   1.00
C6       0.77622    0.40964    -0.07772   1.00
C6       0.79009    0.35057    -0.03849   1.00
C6       0.63295    0.23060    -0.01071   1.00
C6       0.64734    0.20940    0.05775   1.00
H2       0.59438    0.23358    0.03788   1.00
H2       0.64486    0.27555    0.10949   1.00
C6       0.62831    0.33517    0.11622   1.00
C6       0.58266    0.27793    0.11607   1.00
H2       0.58191    0.33955    0.04625   1.00
C6       0.59863    0.33847    -0.01336   1.00
C6       0.54920    0.29469    0.01756   1.00
H2       0.65296    0.34430    -0.10346   1.00
H2       0.69020    0.36717    -0.13090   1.00
H2       0.64270    0.38731    -0.12917   1.00
H2       0.65749    0.45489    -0.09608   1.00
H2       0.70261    0.45708    -0.07178   1.00
H2       0.69996    0.43900    -0.11964   1.00
H2       0.73222    0.39636    0.06328   1.00
H2       0.74856    0.35749    0.03468   1.00
H2       0.76708    0.40504    0.02648   1.00
H2       0.67339    0.45014    -0.00862   1.00
H2       0.69627    0.45112    0.03692   1.00
H2       0.72459    0.45804    -0.00550   1.00
H2       0.77633    0.43213    -0.05514   1.00
H2       0.80641    0.40503    -0.08708   1.00
H2       0.76122    0.42079    -0.10332   1.00
H2       0.80507    0.37085    -0.01902   1.00
H2       0.77982    0.32657    -0.02068   1.00
H2       0.81210    0.33860    -0.05828   1.00
H2       0.66406    0.22854    -0.01688   1.00
H2       0.62011    0.20234    -0.01809   1.00
H2       0.62030    0.25199    -0.03048   1.00
H2       0.63891    0.17995    0.04875   1.00
H2       0.67882    0.21146    0.05426   1.00
H2       0.64057    0.21150    0.08878   1.00
H2       0.63083    0.33309    0.14798   1.00
H2       0.65544    0.34819    0.10565   1.00
H2       0.60445    0.35521    0.10965   1.00
H2       0.57608    0.24850    0.10584   1.00
H2       0.58500    0.27640    0.14788   1.00
H2       0.55798    0.29686    0.10915   1.00
H2       0.60735    0.31852    -0.03656   1.00
H2       0.57399    0.35579    -0.02381   1.00
H2       0.62259    0.35857    -0.00834   1.00
H2       0.52617    0.31528    0.00956   1.00
H2       0.55201    0.27363    -0.00622   1.00
H2       0.53907    0.27921    0.04343   1.00
C4       1.00039    1.00302    1.27084   1.00
C4       1.00085    1.00245    1.22912   1.00
C3       1.02254    1.02960    1.29364   1.00
C3       1.02611    1.02595    1.20616   1.00
C3       0.97704    0.97519    1.29123   1.00
C3       0.97466    0.97718    1.20886   1.00
C2       0.99938    1.00102    1.35512   1.00
C2       1.00062    0.99898    1.14488   1.00
C3       1.02223    1.02851    1.33462   1.00
C3       1.02576    1.02454    1.16519   1.00
C3       0.97657    0.97504    1.33258   1.00
C3       0.97594    0.97499    1.16762   1.00
H1       1.03943    1.05062    1.28115   1.00
H1       1.04567    1.04460    1.21852   1.00
C5       0.95419    0.94780    1.27020   1.00
C5       0.94758    0.95397    1.22980   1.00
H1       1.03906    1.04828    1.34955   1.00
H1       1.04445    1.04245    1.15010   1.00
H1       0.95886    0.95563    1.34680   1.00
H1       0.95878    0.95496    1.15368   1.00
O3       0.93697    0.91709    1.28961   1.00
O3       0.91711    0.93540    1.21099   1.00
Si1      0.95954    0.87522    1.29247   1.00
Si1      0.87696    0.95966    1.20279   1.00
C6       0.92696    0.85265    1.32538   1.00
C6       0.95727    0.85330    1.24598   1.00
C6       1.00685    0.87890    1.31253   1.00
C6       0.87504    1.00923    1.21693   1.00
C6       0.87145    0.95618    1.15198   1.00
C6       0.83859    0.93344    1.22477   1.00
C6       0.91512    0.87748    1.36194   1.00
H2       0.90042    0.85017    1.30791   1.00
C6       0.93506    0.81052    1.34147   1.00
H2       0.93126    0.86686    1.23358   1.00
C6       0.99096    0.86170    1.21634   1.00
C6       0.95004    0.80828    1.24336   1.00
H2       1.00182    0.89700    1.33831   1.00
C6       1.02622    0.84036    1.32772   1.00
C6       1.04009    0.89943    1.28849   1.00
C6       0.88295    1.01940    1.26071   1.00
C6       0.89734    1.04060    1.19225   1.00
H2       0.84438    1.01642    1.21212   1.00
H2       0.89486    0.97445    1.14051   1.00
C6       0.87831    0.91483    1.13378   1.00
C6       0.83266    0.97207    1.13393   1.00
H2       0.83191    0.91045    1.20375   1.00
C6       0.84863    0.91153    1.26336   1.00
C6       0.79920    0.95531    1.23244   1.00
H2       0.90296    0.90570    1.35346   1.00
H2       0.94020    0.88283    1.38090   1.00
H2       0.89270    0.86269    1.37917   1.00
H2       0.90749    0.79511    1.34608   1.00
H2       0.95261    0.79292    1.32178   1.00
H2       0.94996    0.81100    1.36964   1.00
H2       0.98222    0.85364    1.18672   1.00
H2       0.99856    0.89251    1.21532   1.00
H2       1.01708    0.84496    1.22352   1.00
H2       0.92339    0.79986    1.25862   1.00
H2       0.94627    0.79888    1.21308   1.00
H2       0.97459    0.79196    1.25550   1.00
H2       1.02633    0.81787    1.30514   1.00
H2       1.05641    0.84497    1.33708   1.00
H2       1.01122    0.82921    1.35332   1.00
H2       1.05507    0.87915    1.26902   1.00
H2       1.02982    0.92343    1.27068   1.00
H2       1.06210    0.91140    1.30828   1.00
H2       0.91406    1.02146    1.26688   1.00
H2       0.87011    1.04766    1.26809   1.00
H2       0.87030    0.99801    1.28048   1.00
H2       0.88891    1.07005    1.20125   1.00
H2       0.92882    1.03854    1.19574   1.00
H2       0.89057    1.03850    1.16122   1.00
H2       0.88083    0.91691    1.10202   1.00
H2       0.90544    0.90181    1.14435   1.00
H2       0.85445    0.89479    1.14035   1.00
H2       0.82608    1.00150    1.14416   1.00
H2       0.83500    0.97360    1.10212   1.00
H2       0.80798    0.95314    1.14085   1.00
H2       0.85735    0.93148    1.28656   1.00
H2       0.82399    0.89421    1.27381   1.00
H2       0.87259    0.89143    1.25834   1.00
H2       0.77617    0.93472    1.24044   1.00
H2       0.80201    0.97637    1.25622   1.00
H2       0.78907    0.97079    1.20657   1.00
C4       1.00302    1.27084    1.00039   1.00
C4       1.00245    1.22912    1.00085   1.00
C3       1.02960    1.29364    1.02254   1.00
C3       1.02595    1.20616    1.02611   1.00
C3       0.97519    1.29123    0.97704   1.00
C3       0.97718    1.20886    0.97466   1.00
C2       1.00102    1.35512    0.99938   1.00
C2       0.99898    1.14488    1.00062   1.00
C3       1.02851    1.33462    1.02223   1.00
C3       1.02454    1.16519    1.02576   1.00
C3       0.97504    1.33258    0.97657   1.00
C3       0.97499    1.16762    0.97594   1.00
H1       1.05062    1.28115    1.03943   1.00
H1       1.04460    1.21852    1.04567   1.00
C5       0.94780    1.27020    0.95419   1.00
C5       0.95397    1.22980    0.94758   1.00
H1       1.04828    1.34955    1.03906   1.00
H1       1.04245    1.15010    1.04445   1.00
H1       0.95563    1.34680    0.95886   1.00
H1       0.95496    1.15368    0.95878   1.00
O3       0.91709    1.28961    0.93697   1.00
O3       0.93540    1.21099    0.91711   1.00
Si1      0.87522    1.29247    0.95954   1.00
Si1      0.95966    1.20279    0.87696   1.00
C6       0.85265    1.32538    0.92696   1.00
C6       0.85330    1.24598    0.95727   1.00
C6       0.87890    1.31253    1.00685   1.00
C6       1.00923    1.21693    0.87504   1.00
C6       0.95618    1.15198    0.87145   1.00
C6       0.93344    1.22477    0.83859   1.00
C6       0.87748    1.36194    0.91512   1.00
H2       0.85017    1.30791    0.90042   1.00
C6       0.81052    1.34147    0.93506   1.00
H2       0.86686    1.23358    0.93126   1.00
C6       0.86170    1.21634    0.99096   1.00
C6       0.80828    1.24336    0.95004   1.00
H2       0.89700    1.33831    1.00182   1.00
C6       0.84036    1.32772    1.02622   1.00
C6       0.89943    1.28849    1.04009   1.00
C6       1.01940    1.26071    0.88295   1.00
C6       1.04060    1.19225    0.89734   1.00
H2       1.01642    1.21212    0.84438   1.00
H2       0.97445    1.14051    0.89486   1.00
C6       0.91483    1.13378    0.87831   1.00
C6       0.97207    1.13393    0.83266   1.00
H2       0.91045    1.20375    0.83191   1.00
C6       0.91153    1.26336    0.84863   1.00
C6       0.95531    1.23244    0.79920   1.00
H2       0.90570    1.35346    0.90296   1.00
H2       0.88283    1.38090    0.94020   1.00
H2       0.86269    1.37917    0.89270   1.00
H2       0.79511    1.34608    0.90749   1.00
H2       0.79292    1.32178    0.95261   1.00
H2       0.81100    1.36964    0.94996   1.00
H2       0.85364    1.18672    0.98222   1.00
H2       0.89251    1.21532    0.99856   1.00
H2       0.84496    1.22352    1.01708   1.00
H2       0.79986    1.25862    0.92339   1.00
H2       0.79888    1.21308    0.94627   1.00
H2       0.79196    1.25550    0.97459   1.00
H2       0.81787    1.30514    1.02633   1.00
H2       0.84497    1.33708    1.05641   1.00
H2       0.82921    1.35332    1.01122   1.00
H2       0.87915    1.26902    1.05507   1.00
H2       0.92343    1.27068    1.02982   1.00
H2       0.91140    1.30828    1.06210   1.00
H2       1.02146    1.26688    0.91406   1.00
H2       1.04766    1.26809    0.87011   1.00
H2       0.99801    1.28048    0.87030   1.00
H2       1.07005    1.20125    0.88891   1.00
H2       1.03854    1.19574    0.92882   1.00
H2       1.03850    1.16122    0.89057   1.00
H2       0.91691    1.10202    0.88083   1.00
H2       0.90181    1.14435    0.90544   1.00
H2       0.89479    1.14035    0.85445   1.00
H2       1.00150    1.14416    0.82608   1.00
H2       0.97360    1.10212    0.83500   1.00
H2       0.95314    1.14085    0.80798   1.00
H2       0.93148    1.28656    0.85735   1.00
H2       0.89421    1.27381    0.82399   1.00
H2       0.89143    1.25834    0.87259   1.00
H2       0.93472    1.24044    0.77617   1.00
H2       0.97637    1.25622    0.80201   1.00
H2       0.97079    1.20657    0.78907   1.00
C4       0.72916    1.00039    0.99698   1.00
C4       0.77088    1.00085    0.99755   1.00
C3       0.70636    1.02254    0.97040   1.00
C3       0.79384    1.02611    0.97405   1.00
C3       0.70877    0.97704    1.02481   1.00
C3       0.79114    0.97466    1.02282   1.00
C2       0.64488    0.99938    0.99898   1.00
C2       0.85512    1.00062    1.00102   1.00
C3       0.66538    1.02223    0.97149   1.00
C3       0.83481    1.02576    0.97546   1.00
C3       0.66742    0.97657    1.02496   1.00
C3       0.83238    0.97594    1.02501   1.00
H1       0.71885    1.03943    0.94938   1.00
H1       0.78148    1.04567    0.95540   1.00
C5       0.72980    0.95419    1.05220   1.00
C5       0.77020    0.94758    1.04603   1.00
H1       0.65045    1.03906    0.95172   1.00
H1       0.84990    1.04445    0.95755   1.00
H1       0.65320    0.95886    1.04437   1.00
H1       0.84632    0.95878    1.04504   1.00
O3       0.71039    0.93697    1.08291   1.00
O3       0.78901    0.91711    1.06460   1.00
Si1      0.70753    0.95954    1.12478   1.00
Si1      0.79721    0.87696    1.04034   1.00
C6       0.67462    0.92696    1.14735   1.00
C6       0.75402    0.95727    1.14670   1.00
C6       0.68747    1.00685    1.12110   1.00
C6       0.78307    0.87504    0.99077   1.00
C6       0.84802    0.87145    1.04382   1.00
C6       0.77523    0.83859    1.06656   1.00
C6       0.63806    0.91512    1.12252   1.00
H2       0.69209    0.90042    1.14983   1.00
C6       0.65853    0.93506    1.18948   1.00
H2       0.76642    0.93126    1.13314   1.00
C6       0.78366    0.99096    1.13830   1.00
C6       0.75664    0.95004    1.19172   1.00
H2       0.66169    1.00182    1.10300   1.00
C6       0.67228    1.02622    1.15964   1.00
C6       0.71151    1.04009    1.10057   1.00
C6       0.73929    0.88295    0.98060   1.00
C6       0.80775    0.89734    0.95940   1.00
H2       0.78788    0.84438    0.98358   1.00
H2       0.85949    0.89486    1.02555   1.00
C6       0.86622    0.87831    1.08517   1.00
C6       0.86607    0.83266    1.02793   1.00
H2       0.79625    0.83191    1.08955   1.00
C6       0.73664    0.84863    1.08847   1.00
C6       0.76756    0.79920    1.04469   1.00
H2       0.64654    0.90296    1.09430   1.00
H2       0.61910    0.94020    1.11717   1.00
H2       0.62083    0.89270    1.13731   1.00
H2       0.65392    0.90749    1.20489   1.00
H2       0.67822    0.95261    1.20708   1.00
H2       0.63036    0.94996    1.18900   1.00
H2       0.81328    0.98222    1.14636   1.00
H2       0.78468    0.99856    1.10749   1.00
H2       0.77648    1.01708    1.15504   1.00
H2       0.74138    0.92339    1.20014   1.00
H2       0.78692    0.94627    1.20112   1.00
H2       0.74450    0.97459    1.20804   1.00
H2       0.69486    1.02633    1.18213   1.00
H2       0.66292    1.05641    1.15503   1.00
H2       0.64668    1.01122    1.17079   1.00
H2       0.73098    1.05507    1.12085   1.00
H2       0.72932    1.02982    1.07657   1.00
H2       0.69172    1.06210    1.08860   1.00
H2       0.73312    0.91406    0.97854   1.00
H2       0.73191    0.87011    0.95234   1.00
H2       0.71952    0.87030    1.00199   1.00
H2       0.79875    0.88891    0.92995   1.00
H2       0.80426    0.92882    0.96146   1.00
H2       0.83878    0.89057    0.96150   1.00
H2       0.89798    0.88083    1.08309   1.00
H2       0.85565    0.90544    1.09819   1.00
H2       0.85965    0.85445    1.10521   1.00
H2       0.85584    0.82608    0.99850   1.00
H2       0.89788    0.83500    1.02640   1.00
H2       0.85915    0.80798    1.04686   1.00
H2       0.71344    0.85735    1.06852   1.00
H2       0.72619    0.82399    1.10579   1.00
H2       0.74166    0.87259    1.10857   1.00
H2       0.75956    0.77617    1.06528   1.00
H2       0.74378    0.80201    1.02363   1.00
H2       0.79343    0.78907    1.02921   1.00
C4       1.27084    1.00039    1.00302   1.00
C4       1.22912    1.00085    1.00245   1.00
C3       1.29364    1.02254    1.02960   1.00
C3       1.20616    1.02611    1.02595   1.00
C3       1.29123    0.97704    0.97519   1.00
C3       1.20886    0.97466    0.97718   1.00
C2       1.35512    0.99938    1.00102   1.00
C2       1.14488    1.00062    0.99898   1.00
C3       1.33462    1.02223    1.02851   1.00
C3       1.16519    1.02576    1.02454   1.00
C3       1.33258    0.97657    0.97504   1.00
C3       1.16762    0.97594    0.97499   1.00
H1       1.28115    1.03943    1.05062   1.00
H1       1.21852    1.04567    1.04460   1.00
C5       1.27020    0.95419    0.94780   1.00
C5       1.22980    0.94758    0.95397   1.00
H1       1.34955    1.03906    1.04828   1.00
H1       1.15010    1.04445    1.04245   1.00
H1       1.34680    0.95886    0.95563   1.00
H1       1.15368    0.95878    0.95496   1.00
O3       1.28961    0.93697    0.91709   1.00
O3       1.21099    0.91711    0.93540   1.00
Si1      1.29247    0.95954    0.87522   1.00
Si1      1.20279    0.87696    0.95966   1.00
C6       1.32538    0.92696    0.85265   1.00
C6       1.24598    0.95727    0.85330   1.00
C6       1.31253    1.00685    0.87890   1.00
C6       1.21693    0.87504    1.00923   1.00
C6       1.15198    0.87145    0.95618   1.00
C6       1.22477    0.83859    0.93344   1.00
C6       1.36194    0.91512    0.87748   1.00
H2       1.30791    0.90042    0.85017   1.00
C6       1.34147    0.93506    0.81052   1.00
H2       1.23358    0.93126    0.86686   1.00
C6       1.21634    0.99096    0.86170   1.00
C6       1.24336    0.95004    0.80828   1.00
H2       1.33831    1.00182    0.89700   1.00
C6       1.32772    1.02622    0.84036   1.00
C6       1.28849    1.04009    0.89943   1.00
C6       1.26071    0.88295    1.01940   1.00
C6       1.19225    0.89734    1.04060   1.00
H2       1.21212    0.84438    1.01642   1.00
H2       1.14051    0.89486    0.97445   1.00
C6       1.13378    0.87831    0.91483   1.00
C6       1.13393    0.83266    0.97207   1.00
H2       1.20375    0.83191    0.91045   1.00
C6       1.26336    0.84863    0.91153   1.00
C6       1.23244    0.79920    0.95531   1.00
H2       1.35346    0.90296    0.90570   1.00
H2       1.38090    0.94020    0.88283   1.00
H2       1.37917    0.89270    0.86269   1.00
H2       1.34608    0.90749    0.79511   1.00
H2       1.32178    0.95261    0.79292   1.00
H2       1.36964    0.94996    0.81100   1.00
H2       1.18672    0.98222    0.85364   1.00
H2       1.21532    0.99856    0.89251   1.00
H2       1.22352    1.01708    0.84496   1.00
H2       1.25862    0.92339    0.79986   1.00
H2       1.21308    0.94627    0.79888   1.00
H2       1.25550    0.97459    0.79196   1.00
H2       1.30514    1.02633    0.81787   1.00
H2       1.33708    1.05641    0.84497   1.00
H2       1.35332    1.01122    0.82921   1.00
H2       1.26902    1.05507    0.87915   1.00
H2       1.27068    1.02982    0.92343   1.00
H2       1.30828    1.06210    0.91140   1.00
H2       1.26688    0.91406    1.02146   1.00
H2       1.26809    0.87011    1.04766   1.00
H2       1.28048    0.87030    0.99801   1.00
H2       1.20125    0.88891    1.07005   1.00
H2       1.19574    0.92882    1.03854   1.00
H2       1.16122    0.89057    1.03850   1.00
H2       1.10202    0.88083    0.91691   1.00
H2       1.14435    0.90544    0.90181   1.00
H2       1.14035    0.85445    0.89479   1.00
H2       1.14416    0.82608    1.00150   1.00
H2       1.10212    0.83500    0.97360   1.00
H2       1.14085    0.80798    0.95314   1.00
H2       1.28656    0.85735    0.93148   1.00
H2       1.27381    0.82399    0.89421   1.00
H2       1.25834    0.87259    0.89143   1.00
H2       1.24044    0.77617    0.93472   1.00
H2       1.25622    0.80201    0.97637   1.00
H2       1.20657    0.78907    0.97079   1.00
C4       0.99698    0.72916    1.00039   1.00
C4       0.99755    0.77088    1.00085   1.00
C3       0.97040    0.70636    1.02254   1.00
C3       0.97405    0.79384    1.02611   1.00
C3       1.02481    0.70877    0.97704   1.00
C3       1.02282    0.79114    0.97466   1.00
C2       0.99898    0.64488    0.99938   1.00
C2       1.00102    0.85512    1.00062   1.00
C3       0.97149    0.66538    1.02223   1.00
C3       0.97546    0.83481    1.02576   1.00
C3       1.02496    0.66742    0.97657   1.00
C3       1.02501    0.83238    0.97594   1.00
H1       0.94938    0.71885    1.03943   1.00
H1       0.95540    0.78148    1.04567   1.00
C5       1.05220    0.72980    0.95419   1.00
C5       1.04603    0.77020    0.94758   1.00
H1       0.95172    0.65045    1.03906   1.00
H1       0.95755    0.84990    1.04445   1.00
H1       1.04437    0.65320    0.95886   1.00
H1       1.04504    0.84632    0.95878   1.00
O3       1.08291    0.71039    0.93697   1.00
O3       1.06460    0.78901    0.91711   1.00
Si1      1.12478    0.70753    0.95954   1.00
Si1      1.04034    0.79721    0.87696   1.00
C6       1.14735    0.67462    0.92696   1.00
C6       1.14670    0.75402    0.95727   1.00
C6       1.12110    0.68747    1.00685   1.00
C6       0.99077    0.78307    0.87504   1.00
C6       1.04382    0.84802    0.87145   1.00
C6       1.06656    0.77523    0.83859   1.00
C6       1.12252    0.63806    0.91512   1.00
H2       1.14983    0.69209    0.90042   1.00
C6       1.18948    0.65853    0.93506   1.00
H2       1.13314    0.76642    0.93126   1.00
C6       1.13830    0.78366    0.99096   1.00
C6       1.19172    0.75664    0.95004   1.00
H2       1.10300    0.66169    1.00182   1.00
C6       1.15964    0.67228    1.02622   1.00
C6       1.10057    0.71151    1.04009   1.00
C6       0.98060    0.73929    0.88295   1.00
C6       0.95940    0.80775    0.89734   1.00
H2       0.98358    0.78788    0.84438   1.00
H2       1.02555    0.85949    0.89486   1.00
C6       1.08517    0.86622    0.87831   1.00
C6       1.02793    0.86607    0.83266   1.00
H2       1.08955    0.79625    0.83191   1.00
C6       1.08847    0.73664    0.84863   1.00
C6       1.04469    0.76756    0.79920   1.00
H2       1.09430    0.64654    0.90296   1.00
H2       1.11717    0.61910    0.94020   1.00
H2       1.13731    0.62083    0.89270   1.00
H2       1.20489    0.65392    0.90749   1.00
H2       1.20708    0.67822    0.95261   1.00
H2       1.18900    0.63036    0.94996   1.00
H2       1.14636    0.81328    0.98222   1.00
H2       1.10749    0.78468    0.99856   1.00
H2       1.15504    0.77648    1.01708   1.00
H2       1.20014    0.74138    0.92339   1.00
H2       1.20112    0.78692    0.94627   1.00
H2       1.20804    0.74450    0.97459   1.00
H2       1.18213    0.69486    1.02633   1.00
H2       1.15503    0.66292    1.05641   1.00
H2       1.17079    0.64668    1.01122   1.00
H2       1.12085    0.73098    1.05507   1.00
H2       1.07657    0.72932    1.02982   1.00
H2       1.08860    0.69172    1.06210   1.00
H2       0.97854    0.73312    0.91406   1.00
H2       0.95234    0.73191    0.87011   1.00
H2       1.00199    0.71952    0.87030   1.00
H2       0.92995    0.79875    0.88891   1.00
H2       0.96146    0.80426    0.92882   1.00
H2       0.96150    0.83878    0.89057   1.00
H2       1.08309    0.89798    0.88083   1.00
H2       1.09819    0.85565    0.90544   1.00
H2       1.10521    0.85965    0.85445   1.00
H2       0.99850    0.85584    0.82608   1.00
H2       1.02640    0.89788    0.83500   1.00
H2       1.04686    0.85915    0.80798   1.00
H2       1.06852    0.71344    0.85735   1.00
H2       1.10579    0.72619    0.82399   1.00
H2       1.10857    0.74166    0.87259   1.00
H2       1.06528    0.75956    0.77617   1.00
H2       1.02363    0.74378    0.80201   1.00
H2       1.02921    0.79343    0.78907   1.00
C4       1.00039    0.99698    0.72916   1.00
C4       1.00085    0.99755    0.77088   1.00
C3       1.02254    0.97040    0.70636   1.00
C3       1.02611    0.97405    0.79384   1.00
C3       0.97704    1.02481    0.70877   1.00
C3       0.97466    1.02282    0.79114   1.00
C2       0.99938    0.99898    0.64488   1.00
C2       1.00062    1.00102    0.85512   1.00
C3       1.02223    0.97149    0.66538   1.00
C3       1.02576    0.97546    0.83481   1.00
C3       0.97657    1.02496    0.66742   1.00
C3       0.97594    1.02501    0.83238   1.00
H1       1.03943    0.94938    0.71885   1.00
H1       1.04567    0.95540    0.78148   1.00
C5       0.95419    1.05220    0.72980   1.00
C5       0.94758    1.04603    0.77020   1.00
H1       1.03906    0.95172    0.65045   1.00
H1       1.04445    0.95755    0.84990   1.00
H1       0.95886    1.04437    0.65320   1.00
H1       0.95878    1.04504    0.84632   1.00
O3       0.93697    1.08291    0.71039   1.00
O3       0.91711    1.06460    0.78901   1.00
Si1      0.95954    1.12478    0.70753   1.00
Si1      0.87696    1.04034    0.79721   1.00
C6       0.92696    1.14735    0.67462   1.00
C6       0.95727    1.14670    0.75402   1.00
C6       1.00685    1.12110    0.68747   1.00
C6       0.87504    0.99077    0.78307   1.00
C6       0.87145    1.04382    0.84802   1.00
C6       0.83859    1.06656    0.77523   1.00
C6       0.91512    1.12252    0.63806   1.00
H2       0.90042    1.14983    0.69209   1.00
C6       0.93506    1.18948    0.65853   1.00
H2       0.93126    1.13314    0.76642   1.00
C6       0.99096    1.13830    0.78366   1.00
C6       0.95004    1.19172    0.75664   1.00
H2       1.00182    1.10300    0.66169   1.00
C6       1.02622    1.15964    0.67228   1.00
C6       1.04009    1.10057    0.71151   1.00
C6       0.88295    0.98060    0.73929   1.00
C6       0.89734    0.95940    0.80775   1.00
H2       0.84438    0.98358    0.78788   1.00
H2       0.89486    1.02555    0.85949   1.00
C6       0.87831    1.08517    0.86622   1.00
C6       0.83266    1.02793    0.86607   1.00
H2       0.83191    1.08955    0.79625   1.00
C6       0.84863    1.08847    0.73664   1.00
C6       0.79920    1.04469    0.76756   1.00
H2       0.90296    1.09430    0.64654   1.00
H2       0.94020    1.11717    0.61910   1.00
H2       0.89270    1.13731    0.62083   1.00
H2       0.90749    1.20489    0.65392   1.00
H2       0.95261    1.20708    0.67822   1.00
H2       0.94996    1.18900    0.63036   1.00
H2       0.98222    1.14636    0.81328   1.00
H2       0.99856    1.10749    0.78468   1.00
H2       1.01708    1.15504    0.77648   1.00
H2       0.92339    1.20014    0.74138   1.00
H2       0.94627    1.20112    0.78692   1.00
H2       0.97459    1.20804    0.74450   1.00
H2       1.02633    1.18213    0.69486   1.00
H2       1.05641    1.15503    0.66292   1.00
H2       1.01122    1.17079    0.64668   1.00
H2       1.05507    1.12085    0.73098   1.00
H2       1.02982    1.07657    0.72932   1.00
H2       1.06210    1.08860    0.69172   1.00
H2       0.91406    0.97854    0.73312   1.00
H2       0.87011    0.95234    0.73191   1.00
H2       0.87030    1.00199    0.71952   1.00
H2       0.88891    0.92995    0.79875   1.00
H2       0.92882    0.96146    0.80426   1.00
H2       0.89057    0.96150    0.83878   1.00
H2       0.88083    1.08309    0.89798   1.00
H2       0.90544    1.09819    0.85565   1.00
H2       0.85445    1.10521    0.85965   1.00
H2       0.82608    0.99850    0.85584   1.00
H2       0.83500    1.02640    0.89788   1.00
H2       0.80798    1.04686    0.85915   1.00
H2       0.85735    1.06852    0.71344   1.00
H2       0.82399    1.10579    0.72619   1.00
H2       0.87259    1.10857    0.74166   1.00
H2       0.77617    1.06528    0.75956   1.00
H2       0.80201    1.02363    0.74378   1.00
H2       0.78907    1.02921    0.79343   1.00
C4       0.50039    0.50302    1.27084   1.00
C4       0.50085    0.50245    1.22912   1.00
C3       0.52254    0.52960    1.29364   1.00
C3       0.52611    0.52595    1.20616   1.00
C3       0.47704    0.47519    1.29123   1.00
C3       0.47466    0.47718    1.20886   1.00
C2       0.49938    0.50102    1.35512   1.00
C2       0.50062    0.49898    1.14488   1.00
C3       0.52223    0.52851    1.33462   1.00
C3       0.52576    0.52454    1.16519   1.00
C3       0.47657    0.47504    1.33258   1.00
C3       0.47594    0.47499    1.16762   1.00
H1       0.53943    0.55062    1.28115   1.00
H1       0.54567    0.54460    1.21852   1.00
C5       0.45419    0.44780    1.27020   1.00
C5       0.44758    0.45397    1.22980   1.00
H1       0.53906    0.54828    1.34955   1.00
H1       0.54445    0.54245    1.15010   1.00
H1       0.45886    0.45563    1.34680   1.00
H1       0.45878    0.45496    1.15368   1.00
O3       0.43697    0.41709    1.28961   1.00
O3       0.41711    0.43540    1.21099   1.00
Si1      0.45954    0.37522    1.29247   1.00
Si1      0.37696    0.45966    1.20279   1.00
C6       0.42696    0.35265    1.32538   1.00
C6       0.45727    0.35330    1.24598   1.00
C6       0.50685    0.37890    1.31253   1.00
C6       0.37504    0.50923    1.21693   1.00
C6       0.37145    0.45618    1.15198   1.00
C6       0.33859    0.43344    1.22477   1.00
C6       0.41512    0.37748    1.36194   1.00
H2       0.40042    0.35017    1.30791   1.00
C6       0.43506    0.31052    1.34147   1.00
H2       0.43126    0.36686    1.23358   1.00
C6       0.49096    0.36170    1.21634   1.00
C6       0.45004    0.30828    1.24336   1.00
H2       0.50182    0.39700    1.33831   1.00
C6       0.52622    0.34036    1.32772   1.00
C6       0.54009    0.39943    1.28849   1.00
C6       0.38295    0.51940    1.26071   1.00
C6       0.39734    0.54060    1.19225   1.00
H2       0.34438    0.51642    1.21212   1.00
H2       0.39486    0.47445    1.14051   1.00
C6       0.37831    0.41483    1.13378   1.00
C6       0.33266    0.47207    1.13393   1.00
H2       0.33191    0.41045    1.20375   1.00
C6       0.34863    0.41153    1.26336   1.00
C6       0.29920    0.45531    1.23244   1.00
H2       0.40296    0.40570    1.35346   1.00
H2       0.44020    0.38283    1.38090   1.00
H2       0.39270    0.36269    1.37917   1.00
H2       0.40749    0.29511    1.34608   1.00
H2       0.45261    0.29292    1.32178   1.00
H2       0.44996    0.31100    1.36964   1.00
H2       0.48222    0.35364    1.18672   1.00
H2       0.49856    0.39251    1.21532   1.00
H2       0.51708    0.34496    1.22352   1.00
H2       0.42339    0.29986    1.25862   1.00
H2       0.44627    0.29888    1.21308   1.00
H2       0.47459    0.29196    1.25550   1.00
H2       0.52633    0.31787    1.30514   1.00
H2       0.55641    0.34497    1.33708   1.00
H2       0.51122    0.32921    1.35332   1.00
H2       0.55507    0.37915    1.26902   1.00
H2       0.52982    0.42343    1.27068   1.00
H2       0.56210    0.41140    1.30828   1.00
H2       0.41406    0.52146    1.26688   1.00
H2       0.37011    0.54766    1.26809   1.00
H2       0.37030    0.49801    1.28048   1.00
H2       0.38891    0.57005    1.20125   1.00
H2       0.42882    0.53854    1.19574   1.00
H2       0.39057    0.53850    1.16122   1.00
H2       0.38083    0.41691    1.10202   1.00
H2       0.40544    0.40181    1.14435   1.00
H2       0.35445    0.39479    1.14035   1.00
H2       0.32608    0.50150    1.14416   1.00
H2       0.33500    0.47360    1.10212   1.00
H2       0.30798    0.45314    1.14085   1.00
H2       0.35735    0.43148    1.28656   1.00
H2       0.32399    0.39421    1.27381   1.00
H2       0.37259    0.39143    1.25834   1.00
H2       0.27617    0.43472    1.24044   1.00
H2       0.30201    0.47637    1.25622   1.00
H2       0.28907    0.47079    1.20657   1.00
C4       0.50302    0.77084    1.00039   1.00
C4       0.50245    0.72912    1.00085   1.00
C3       0.52960    0.79364    1.02254   1.00
C3       0.52595    0.70616    1.02611   1.00
C3       0.47519    0.79123    0.97704   1.00
C3       0.47718    0.70886    0.97466   1.00
C2       0.50102    0.85512    0.99938   1.00
C2       0.49898    0.64488    1.00062   1.00
C3       0.52851    0.83462    1.02223   1.00
C3       0.52454    0.66519    1.02576   1.00
C3       0.47504    0.83258    0.97657   1.00
C3       0.47499    0.66762    0.97594   1.00
H1       0.55062    0.78115    1.03943   1.00
H1       0.54460    0.71852    1.04567   1.00
C5       0.44780    0.77020    0.95419   1.00
C5       0.45397    0.72980    0.94758   1.00
H1       0.54828    0.84955    1.03906   1.00
H1       0.54245    0.65010    1.04445   1.00
H1       0.45563    0.84680    0.95886   1.00
H1       0.45496    0.65368    0.95878   1.00
O3       0.41709    0.78961    0.93697   1.00
O3       0.43540    0.71099    0.91711   1.00
Si1      0.37522    0.79247    0.95954   1.00
Si1      0.45966    0.70279    0.87696   1.00
C6       0.35265    0.82538    0.92696   1.00
C6       0.35330    0.74598    0.95727   1.00
C6       0.37890    0.81253    1.00685   1.00
C6       0.50923    0.71693    0.87504   1.00
C6       0.45618    0.65198    0.87145   1.00
C6       0.43344    0.72477    0.83859   1.00
C6       0.37748    0.86194    0.91512   1.00
H2       0.35017    0.80791    0.90042   1.00
C6       0.31052    0.84147    0.93506   1.00
H2       0.36686    0.73358    0.93126   1.00
C6       0.36170    0.71634    0.99096   1.00
C6       0.30828    0.74336    0.95004   1.00
H2       0.39700    0.83831    1.00182   1.00
C6       0.34036    0.82772    1.02622   1.00
C6       0.39943    0.78849    1.04009   1.00
C6       0.51940    0.76071    0.88295   1.00
C6       0.54060    0.69225    0.89734   1.00
H2       0.51642    0.71212    0.84438   1.00
H2       0.47445    0.64051    0.89486   1.00
C6       0.41483    0.63378    0.87831   1.00
C6       0.47207    0.63393    0.83266   1.00
H2       0.41045    0.70375    0.83191   1.00
C6       0.41153    0.76336    0.84863   1.00
C6       0.45531    0.73244    0.79920   1.00
H2       0.40570    0.85346    0.90296   1.00
H2       0.38283    0.88090    0.94020   1.00
H2       0.36269    0.87917    0.89270   1.00
H2       0.29511    0.84608    0.90749   1.00
H2       0.29292    0.82178    0.95261   1.00
H2       0.31100    0.86964    0.94996   1.00
H2       0.35364    0.68672    0.98222   1.00
H2       0.39251    0.71532    0.99856   1.00
H2       0.34496    0.72352    1.01708   1.00
H2       0.29986    0.75862    0.92339   1.00
H2       0.29888    0.71308    0.94627   1.00
H2       0.29196    0.75550    0.97459   1.00
H2       0.31787    0.80514    1.02633   1.00
H2       0.34497    0.83708    1.05641   1.00
H2       0.32921    0.85332    1.01122   1.00
H2       0.37915    0.76902    1.05507   1.00
H2       0.42343    0.77068    1.02982   1.00
H2       0.41140    0.80828    1.06210   1.00
H2       0.52146    0.76688    0.91406   1.00
H2       0.54766    0.76809    0.87011   1.00
H2       0.49801    0.78048    0.87030   1.00
H2       0.57005    0.70125    0.88891   1.00
H2       0.53854    0.69574    0.92882   1.00
H2       0.53850    0.66122    0.89057   1.00
H2       0.41691    0.60202    0.88083   1.00
H2       0.40181    0.64435    0.90544   1.00
H2       0.39479    0.64035    0.85445   1.00
H2       0.50150    0.64416    0.82608   1.00
H2       0.47360    0.60212    0.83500   1.00
H2       0.45314    0.64085    0.80798   1.00
H2       0.43148    0.78656    0.85735   1.00
H2       0.39421    0.77381    0.82399   1.00
H2       0.39143    0.75834    0.87259   1.00
H2       0.43472    0.74044    0.77617   1.00
H2       0.47637    0.75622    0.80201   1.00
H2       0.47079    0.70657    0.78907   1.00
C4       0.22916    0.50039    0.99698   1.00
C4       0.27088    0.50085    0.99755   1.00
C3       0.20636    0.52254    0.97040   1.00
C3       0.29384    0.52611    0.97405   1.00
C3       0.20877    0.47704    1.02481   1.00
C3       0.29114    0.47466    1.02282   1.00
C2       0.14488    0.49938    0.99898   1.00
C2       0.35512    0.50062    1.00102   1.00
C3       0.16538    0.52223    0.97149   1.00
C3       0.33481    0.52576    0.97546   1.00
C3       0.16742    0.47657    1.02496   1.00
C3       0.33238    0.47594    1.02501   1.00
H1       0.21885    0.53943    0.94938   1.00
H1       0.28148    0.54567    0.95540   1.00
C5       0.22980    0.45419    1.05220   1.00
C5       0.27020    0.44758    1.04603   1.00
H1       0.15045    0.53906    0.95172   1.00
H1       0.34990    0.54445    0.95755   1.00
H1       0.15320    0.45886    1.04437   1.00
H1       0.34632    0.45878    1.04504   1.00
O3       0.21039    0.43697    1.08291   1.00
O3       0.28901    0.41711    1.06460   1.00
Si1      0.20753    0.45954    1.12478   1.00
Si1      0.29721    0.37696    1.04034   1.00
C6       0.17462    0.42696    1.14735   1.00
C6       0.25402    0.45727    1.14670   1.00
C6       0.18747    0.50685    1.12110   1.00
C6       0.28307    0.37504    0.99077   1.00
C6       0.34802    0.37145    1.04382   1.00
C6       0.27523    0.33859    1.06656   1.00
C6       0.13806    0.41512    1.12252   1.00
H2       0.19209    0.40042    1.14983   1.00
C6       0.15853    0.43506    1.18948   1.00
H2       0.26642    0.43126    1.13314   1.00
C6       0.28366    0.49096    1.13830   1.00
C6       0.25664    0.45004    1.19172   1.00
H2       0.16169    0.50182    1.10300   1.00
C6       0.17228    0.52622    1.15964   1.00
C6       0.21151    0.54009    1.10057   1.00
C6       0.23929    0.38295    0.98060   1.00
C6       0.30775    0.39734    0.95940   1.00
H2       0.28788    0.34438    0.98358   1.00
H2       0.35949    0.39486    1.02555   1.00
C6       0.36622    0.37831    1.08517   1.00
C6       0.36607    0.33266    1.02793   1.00
H2       0.29625    0.33191    1.08955   1.00
C6       0.23664    0.34863    1.08847   1.00
C6       0.26756    0.29920    1.04469   1.00
H2       0.14654    0.40296    1.09430   1.00
H2       0.11910    0.44020    1.11717   1.00
H2       0.12083    0.39270    1.13731   1.00
H2       0.15392    0.40749    1.20489   1.00
H2       0.17822    0.45261    1.20708   1.00
H2       0.13036    0.44996    1.18900   1.00
H2       0.31328    0.48222    1.14636   1.00
H2       0.28468    0.49856    1.10749   1.00
H2       0.27648    0.51708    1.15504   1.00
H2       0.24138    0.42339    1.20014   1.00
H2       0.28692    0.44627    1.20112   1.00
H2       0.24450    0.47459    1.20804   1.00
H2       0.19486    0.52633    1.18213   1.00
H2       0.16292    0.55641    1.15503   1.00
H2       0.14668    0.51122    1.17079   1.00
H2       0.23098    0.55507    1.12085   1.00
H2       0.22932    0.52982    1.07657   1.00
H2       0.19172    0.56210    1.08860   1.00
H2       0.23312    0.41406    0.97854   1.00
H2       0.23191    0.37011    0.95234   1.00
H2       0.21952    0.37030    1.00199   1.00
H2       0.29875    0.38891    0.92995   1.00
H2       0.30426    0.42882    0.96146   1.00
H2       0.33878    0.39057    0.96150   1.00
H2       0.39798    0.38083    1.08309   1.00
H2       0.35565    0.40544    1.09819   1.00
H2       0.35965    0.35445    1.10521   1.00
H2       0.35584    0.32608    0.99850   1.00
H2       0.39788    0.33500    1.02640   1.00
H2       0.35915    0.30798    1.04686   1.00
H2       0.21344    0.35735    1.06852   1.00
H2       0.22619    0.32399    1.10579   1.00
H2       0.24166    0.37259    1.10857   1.00
H2       0.25956    0.27617    1.06528   1.00
H2       0.24378    0.30201    1.02363   1.00
H2       0.29343    0.28907    1.02921   1.00
C4       0.77084    0.50039    1.00302   1.00
C4       0.72912    0.50085    1.00245   1.00
C3       0.79364    0.52254    1.02960   1.00
C3       0.70616    0.52611    1.02595   1.00
C3       0.79123    0.47704    0.97519   1.00
C3       0.70886    0.47466    0.97718   1.00
C2       0.85512    0.49938    1.00102   1.00
C2       0.64488    0.50062    0.99898   1.00
C3       0.83462    0.52223    1.02851   1.00
C3       0.66519    0.52576    1.02454   1.00
C3       0.83258    0.47657    0.97504   1.00
C3       0.66762    0.47594    0.97499   1.00
H1       0.78115    0.53943    1.05062   1.00
H1       0.71852    0.54567    1.04460   1.00
C5       0.77020    0.45419    0.94780   1.00
C5       0.72980    0.44758    0.95397   1.00
H1       0.84955    0.53906    1.04828   1.00
H1       0.65010    0.54445    1.04245   1.00
H1       0.84680    0.45886    0.95563   1.00
H1       0.65368    0.45878    0.95496   1.00
O3       0.78961    0.43697    0.91709   1.00
O3       0.71099    0.41711    0.93540   1.00
Si1      0.79247    0.45954    0.87522   1.00
Si1      0.70279    0.37696    0.95966   1.00
C6       0.82538    0.42696    0.85265   1.00
C6       0.74598    0.45727    0.85330   1.00
C6       0.81253    0.50685    0.87890   1.00
C6       0.71693    0.37504    1.00923   1.00
C6       0.65198    0.37145    0.95618   1.00
C6       0.72477    0.33859    0.93344   1.00
C6       0.86194    0.41512    0.87748   1.00
H2       0.80791    0.40042    0.85017   1.00
C6       0.84147    0.43506    0.81052   1.00
H2       0.73358    0.43126    0.86686   1.00
C6       0.71634    0.49096    0.86170   1.00
C6       0.74336    0.45004    0.80828   1.00
H2       0.83831    0.50182    0.89700   1.00
C6       0.82772    0.52622    0.84036   1.00
C6       0.78849    0.54009    0.89943   1.00
C6       0.76071    0.38295    1.01940   1.00
C6       0.69225    0.39734    1.04060   1.00
H2       0.71212    0.34438    1.01642   1.00
H2       0.64051    0.39486    0.97445   1.00
C6       0.63378    0.37831    0.91483   1.00
C6       0.63393    0.33266    0.97207   1.00
H2       0.70375    0.33191    0.91045   1.00
C6       0.76336    0.34863    0.91153   1.00
C6       0.73244    0.29920    0.95531   1.00
H2       0.85346    0.40296    0.90570   1.00
H2       0.88090    0.44020    0.88283   1.00
H2       0.87917    0.39270    0.86269   1.00
H2       0.84608    0.40749    0.79511   1.00
H2       0.82178    0.45261    0.79292   1.00
H2       0.86964    0.44996    0.81100   1.00
H2       0.68672    0.48222    0.85364   1.00
H2       0.71532    0.49856    0.89251   1.00
H2       0.72352    0.51708    0.84496   1.00
H2       0.75862    0.42339    0.79986   1.00
H2       0.71308    0.44627    0.79888   1.00
H2       0.75550    0.47459    0.79196   1.00
H2       0.80514    0.52633    0.81787   1.00
H2       0.83708    0.55641    0.84497   1.00
H2       0.85332    0.51122    0.82921   1.00
H2       0.76902    0.55507    0.87915   1.00
H2       0.77068    0.52982    0.92343   1.00
H2       0.80828    0.56210    0.91140   1.00
H2       0.76688    0.41406    1.02146   1.00
H2       0.76809    0.37011    1.04766   1.00
H2       0.78048    0.37030    0.99801   1.00
H2       0.70125    0.38891    1.07005   1.00
H2       0.69574    0.42882    1.03854   1.00
H2       0.66122    0.39057    1.03850   1.00
H2       0.60202    0.38083    0.91691   1.00
H2       0.64435    0.40544    0.90181   1.00
H2       0.64035    0.35445    0.89479   1.00
H2       0.64416    0.32608    1.00150   1.00
H2       0.60212    0.33500    0.97360   1.00
H2       0.64085    0.30798    0.95314   1.00
H2       0.78656    0.35735    0.93148   1.00
H2       0.77381    0.32399    0.89421   1.00
H2       0.75834    0.37259    0.89143   1.00
H2       0.74044    0.27617    0.93472   1.00
H2       0.75622    0.30201    0.97637   1.00
H2       0.70657    0.28907    0.97079   1.00
C4       0.49698    0.22916    1.00039   1.00
C4       0.49755    0.27088    1.00085   1.00
C3       0.47040    0.20636    1.02254   1.00
C3       0.47405    0.29384    1.02611   1.00
C3       0.52481    0.20877    0.97704   1.00
C3       0.52282    0.29114    0.97466   1.00
C2       0.49898    0.14488    0.99938   1.00
C2       0.50102    0.35512    1.00062   1.00
C3       0.47149    0.16538    1.02223   1.00
C3       0.47546    0.33481    1.02576   1.00
C3       0.52496    0.16742    0.97657   1.00
C3       0.52501    0.33238    0.97594   1.00
H1       0.44938    0.21885    1.03943   1.00
H1       0.45540    0.28148    1.04567   1.00
C5       0.55220    0.22980    0.95419   1.00
C5       0.54603    0.27020    0.94758   1.00
H1       0.45172    0.15045    1.03906   1.00
H1       0.45755    0.34990    1.04445   1.00
H1       0.54437    0.15320    0.95886   1.00
H1       0.54504    0.34632    0.95878   1.00
O3       0.58291    0.21039    0.93697   1.00
O3       0.56460    0.28901    0.91711   1.00
Si1      0.62478    0.20753    0.95954   1.00
Si1      0.54034    0.29721    0.87696   1.00
C6       0.64735    0.17462    0.92696   1.00
C6       0.64670    0.25402    0.95727   1.00
C6       0.62110    0.18747    1.00685   1.00
C6       0.49077    0.28307    0.87504   1.00
C6       0.54382    0.34802    0.87145   1.00
C6       0.56656    0.27523    0.83859   1.00
C6       0.62252    0.13806    0.91512   1.00
H2       0.64983    0.19209    0.90042   1.00
C6       0.68948    0.15853    0.93506   1.00
H2       0.63314    0.26642    0.93126   1.00
C6       0.63830    0.28366    0.99096   1.00
C6       0.69172    0.25664    0.95004   1.00
H2       0.60300    0.16169    1.00182   1.00
C6       0.65964    0.17228    1.02622   1.00
C6       0.60057    0.21151    1.04009   1.00
C6       0.48060    0.23929    0.88295   1.00
C6       0.45940    0.30775    0.89734   1.00
H2       0.48358    0.28788    0.84438   1.00
H2       0.52555    0.35949    0.89486   1.00
C6       0.58517    0.36622    0.87831   1.00
C6       0.52793    0.36607    0.83266   1.00
H2       0.58955    0.29625    0.83191   1.00
C6       0.58847    0.23664    0.84863   1.00
C6       0.54469    0.26756    0.79920   1.00
H2       0.59430    0.14654    0.90296   1.00
H2       0.61717    0.11910    0.94020   1.00
H2       0.63731    0.12083    0.89270   1.00
H2       0.70489    0.15392    0.90749   1.00
H2       0.70708    0.17822    0.95261   1.00
H2       0.68900    0.13036    0.94996   1.00
H2       0.64636    0.31328    0.98222   1.00
H2       0.60749    0.28468    0.99856   1.00
H2       0.65504    0.27648    1.01708   1.00
H2       0.70014    0.24138    0.92339   1.00
H2       0.70112    0.28692    0.94627   1.00
H2       0.70804    0.24450    0.97459   1.00
H2       0.68213    0.19486    1.02633   1.00
H2       0.65503    0.16292    1.05641   1.00
H2       0.67079    0.14668    1.01122   1.00
H2       0.62085    0.23098    1.05507   1.00
H2       0.57657    0.22932    1.02982   1.00
H2       0.58860    0.19172    1.06210   1.00
H2       0.47854    0.23312    0.91406   1.00
H2       0.45234    0.23191    0.87011   1.00
H2       0.50199    0.21952    0.87030   1.00
H2       0.42995    0.29875    0.88891   1.00
H2       0.46146    0.30426    0.92882   1.00
H2       0.46150    0.33878    0.89057   1.00
H2       0.58309    0.39798    0.88083   1.00
H2       0.59819    0.35565    0.90544   1.00
H2       0.60521    0.35965    0.85445   1.00
H2       0.49850    0.35584    0.82608   1.00
H2       0.52640    0.39788    0.83500   1.00
H2       0.54686    0.35915    0.80798   1.00
H2       0.56852    0.21344    0.85735   1.00
H2       0.60579    0.22619    0.82399   1.00
H2       0.60857    0.24166    0.87259   1.00
H2       0.56528    0.25956    0.77617   1.00
H2       0.52363    0.24378    0.80201   1.00
H2       0.52921    0.29343    0.78907   1.00
C4       0.50039    0.49698    0.72916   1.00
C4       0.50085    0.49755    0.77088   1.00
C3       0.52254    0.47040    0.70636   1.00
C3       0.52611    0.47405    0.79384   1.00
C3       0.47704    0.52481    0.70877   1.00
C3       0.47466    0.52282    0.79114   1.00
C2       0.49938    0.49898    0.64488   1.00
C2       0.50062    0.50102    0.85512   1.00
C3       0.52223    0.47149    0.66538   1.00
C3       0.52576    0.47546    0.83481   1.00
C3       0.47657    0.52496    0.66742   1.00
C3       0.47594    0.52501    0.83238   1.00
H1       0.53943    0.44938    0.71885   1.00
H1       0.54567    0.45540    0.78148   1.00
C5       0.45419    0.55220    0.72980   1.00
C5       0.44758    0.54603    0.77020   1.00
H1       0.53906    0.45172    0.65045   1.00
H1       0.54445    0.45755    0.84990   1.00
H1       0.45886    0.54437    0.65320   1.00
H1       0.45878    0.54504    0.84632   1.00
O3       0.43697    0.58291    0.71039   1.00
O3       0.41711    0.56460    0.78901   1.00
Si1      0.45954    0.62478    0.70753   1.00
Si1      0.37696    0.54034    0.79721   1.00
C6       0.42696    0.64735    0.67462   1.00
C6       0.45727    0.64670    0.75402   1.00
C6       0.50685    0.62110    0.68747   1.00
C6       0.37504    0.49077    0.78307   1.00
C6       0.37145    0.54382    0.84802   1.00
C6       0.33859    0.56656    0.77523   1.00
C6       0.41512    0.62252    0.63806   1.00
H2       0.40042    0.64983    0.69209   1.00
C6       0.43506    0.68948    0.65853   1.00
H2       0.43126    0.63314    0.76642   1.00
C6       0.49096    0.63830    0.78366   1.00
C6       0.45004    0.69172    0.75664   1.00
H2       0.50182    0.60300    0.66169   1.00
C6       0.52622    0.65964    0.67228   1.00
C6       0.54009    0.60057    0.71151   1.00
C6       0.38295    0.48060    0.73929   1.00
C6       0.39734    0.45940    0.80775   1.00
H2       0.34438    0.48358    0.78788   1.00
H2       0.39486    0.52555    0.85949   1.00
C6       0.37831    0.58517    0.86622   1.00
C6       0.33266    0.52793    0.86607   1.00
H2       0.33191    0.58955    0.79625   1.00
C6       0.34863    0.58847    0.73664   1.00
C6       0.29920    0.54469    0.76756   1.00
H2       0.40296    0.59430    0.64654   1.00
H2       0.44020    0.61717    0.61910   1.00
H2       0.39270    0.63731    0.62083   1.00
H2       0.40749    0.70489    0.65392   1.00
H2       0.45261    0.70708    0.67822   1.00
H2       0.44996    0.68900    0.63036   1.00
H2       0.48222    0.64636    0.81328   1.00
H2       0.49856    0.60749    0.78468   1.00
H2       0.51708    0.65504    0.77648   1.00
H2       0.42339    0.70014    0.74138   1.00
H2       0.44627    0.70112    0.78692   1.00
H2       0.47459    0.70804    0.74450   1.00
H2       0.52633    0.68213    0.69486   1.00
H2       0.55641    0.65503    0.66292   1.00
H2       0.51122    0.67079    0.64668   1.00
H2       0.55507    0.62085    0.73098   1.00
H2       0.52982    0.57657    0.72932   1.00
H2       0.56210    0.58860    0.69172   1.00
H2       0.41406    0.47854    0.73312   1.00
H2       0.37011    0.45234    0.73191   1.00
H2       0.37030    0.50199    0.71952   1.00
H2       0.38891    0.42995    0.79875   1.00
H2       0.42882    0.46146    0.80426   1.00
H2       0.39057    0.46150    0.83878   1.00
H2       0.38083    0.58309    0.89798   1.00
H2       0.40544    0.59819    0.85565   1.00
H2       0.35445    0.60521    0.85965   1.00
H2       0.32608    0.49850    0.85584   1.00
H2       0.33500    0.52640    0.89788   1.00
H2       0.30798    0.54686    0.85915   1.00
H2       0.35735    0.56852    0.71344   1.00
H2       0.32399    0.60579    0.72619   1.00
H2       0.37259    0.60857    0.74166   1.00
H2       0.27617    0.56528    0.75956   1.00
H2       0.30201    0.52363    0.74378   1.00
H2       0.28907    0.52921    0.79343   1.00
C4       0.50039    1.00302    0.77084   1.00
C4       0.50085    1.00245    0.72912   1.00
C3       0.52254    1.02960    0.79364   1.00
C3       0.52611    1.02595    0.70616   1.00
C3       0.47704    0.97519    0.79123   1.00
C3       0.47466    0.97718    0.70886   1.00
C2       0.49938    1.00102    0.85512   1.00
C2       0.50062    0.99898    0.64488   1.00
C3       0.52223    1.02851    0.83462   1.00
C3       0.52576    1.02454    0.66519   1.00
C3       0.47657    0.97504    0.83258   1.00
C3       0.47594    0.97499    0.66762   1.00
H1       0.53943    1.05062    0.78115   1.00
H1       0.54567    1.04460    0.71852   1.00
C5       0.45419    0.94780    0.77020   1.00
C5       0.44758    0.95397    0.72980   1.00
H1       0.53906    1.04828    0.84955   1.00
H1       0.54445    1.04245    0.65010   1.00
H1       0.45886    0.95563    0.84680   1.00
H1       0.45878    0.95496    0.65368   1.00
O3       0.43697    0.91709    0.78961   1.00
O3       0.41711    0.93540    0.71099   1.00
Si1      0.45954    0.87522    0.79247   1.00
Si1      0.37696    0.95966    0.70279   1.00
C6       0.42696    0.85265    0.82538   1.00
C6       0.45727    0.85330    0.74598   1.00
C6       0.50685    0.87890    0.81253   1.00
C6       0.37504    1.00923    0.71693   1.00
C6       0.37145    0.95618    0.65198   1.00
C6       0.33859    0.93344    0.72477   1.00
C6       0.41512    0.87748    0.86194   1.00
H2       0.40042    0.85017    0.80791   1.00
C6       0.43506    0.81052    0.84147   1.00
H2       0.43126    0.86686    0.73358   1.00
C6       0.49096    0.86170    0.71634   1.00
C6       0.45004    0.80828    0.74336   1.00
H2       0.50182    0.89700    0.83831   1.00
C6       0.52622    0.84036    0.82772   1.00
C6       0.54009    0.89943    0.78849   1.00
C6       0.38295    1.01940    0.76071   1.00
C6       0.39734    1.04060    0.69225   1.00
H2       0.34438    1.01642    0.71212   1.00
H2       0.39486    0.97445    0.64051   1.00
C6       0.37831    0.91483    0.63378   1.00
C6       0.33266    0.97207    0.63393   1.00
H2       0.33191    0.91045    0.70375   1.00
C6       0.34863    0.91153    0.76336   1.00
C6       0.29920    0.95531    0.73244   1.00
H2       0.40296    0.90570    0.85346   1.00
H2       0.44020    0.88283    0.88090   1.00
H2       0.39270    0.86269    0.87917   1.00
H2       0.40749    0.79511    0.84608   1.00
H2       0.45261    0.79292    0.82178   1.00
H2       0.44996    0.81100    0.86964   1.00
H2       0.48222    0.85364    0.68672   1.00
H2       0.49856    0.89251    0.71532   1.00
H2       0.51708    0.84496    0.72352   1.00
H2       0.42339    0.79986    0.75862   1.00
H2       0.44627    0.79888    0.71308   1.00
H2       0.47459    0.79196    0.75550   1.00
H2       0.52633    0.81787    0.80514   1.00
H2       0.55641    0.84497    0.83708   1.00
H2       0.51122    0.82921    0.85332   1.00
H2       0.55507    0.87915    0.76902   1.00
H2       0.52982    0.92343    0.77068   1.00
H2       0.56210    0.91140    0.80828   1.00
H2       0.41406    1.02146    0.76688   1.00
H2       0.37011    1.04766    0.76809   1.00
H2       0.37030    0.99801    0.78048   1.00
H2       0.38891    1.07005    0.70125   1.00
H2       0.42882    1.03854    0.69574   1.00
H2       0.39057    1.03850    0.66122   1.00
H2       0.38083    0.91691    0.60202   1.00
H2       0.40544    0.90181    0.64435   1.00
H2       0.35445    0.89479    0.64035   1.00
H2       0.32608    1.00150    0.64416   1.00
H2       0.33500    0.97360    0.60212   1.00
H2       0.30798    0.95314    0.64085   1.00
H2       0.35735    0.93148    0.78656   1.00
H2       0.32399    0.89421    0.77381   1.00
H2       0.37259    0.89143    0.75834   1.00
H2       0.27617    0.93472    0.74044   1.00
H2       0.30201    0.97637    0.75622   1.00
H2       0.28907    0.97079    0.70657   1.00
C4       0.50302    1.27084    0.50039   1.00
C4       0.50245    1.22912    0.50085   1.00
C3       0.52960    1.29364    0.52254   1.00
C3       0.52595    1.20616    0.52611   1.00
C3       0.47519    1.29123    0.47704   1.00
C3       0.47718    1.20886    0.47466   1.00
C2       0.50102    1.35512    0.49938   1.00
C2       0.49898    1.14488    0.50062   1.00
C3       0.52851    1.33462    0.52223   1.00
C3       0.52454    1.16519    0.52576   1.00
C3       0.47504    1.33258    0.47657   1.00
C3       0.47499    1.16762    0.47594   1.00
H1       0.55062    1.28115    0.53943   1.00
H1       0.54460    1.21852    0.54567   1.00
C5       0.44780    1.27020    0.45419   1.00
C5       0.45397    1.22980    0.44758   1.00
H1       0.54828    1.34955    0.53906   1.00
H1       0.54245    1.15010    0.54445   1.00
H1       0.45563    1.34680    0.45886   1.00
H1       0.45496    1.15368    0.45878   1.00
O3       0.41709    1.28961    0.43697   1.00
O3       0.43540    1.21099    0.41711   1.00
Si1      0.37522    1.29247    0.45954   1.00
Si1      0.45966    1.20279    0.37696   1.00
C6       0.35265    1.32538    0.42696   1.00
C6       0.35330    1.24598    0.45727   1.00
C6       0.37890    1.31253    0.50685   1.00
C6       0.50923    1.21693    0.37504   1.00
C6       0.45618    1.15198    0.37145   1.00
C6       0.43344    1.22477    0.33859   1.00
C6       0.37748    1.36194    0.41512   1.00
H2       0.35017    1.30791    0.40042   1.00
C6       0.31052    1.34147    0.43506   1.00
H2       0.36686    1.23358    0.43126   1.00
C6       0.36170    1.21634    0.49096   1.00
C6       0.30828    1.24336    0.45004   1.00
H2       0.39700    1.33831    0.50182   1.00
C6       0.34036    1.32772    0.52622   1.00
C6       0.39943    1.28849    0.54009   1.00
C6       0.51940    1.26071    0.38295   1.00
C6       0.54060    1.19225    0.39734   1.00
H2       0.51642    1.21212    0.34438   1.00
H2       0.47445    1.14051    0.39486   1.00
C6       0.41483    1.13378    0.37831   1.00
C6       0.47207    1.13393    0.33266   1.00
H2       0.41045    1.20375    0.33191   1.00
C6       0.41153    1.26336    0.34863   1.00
C6       0.45531    1.23244    0.29920   1.00
H2       0.40570    1.35346    0.40296   1.00
H2       0.38283    1.38090    0.44020   1.00
H2       0.36269    1.37917    0.39270   1.00
H2       0.29511    1.34608    0.40749   1.00
H2       0.29292    1.32178    0.45261   1.00
H2       0.31100    1.36964    0.44996   1.00
H2       0.35364    1.18672    0.48222   1.00
H2       0.39251    1.21532    0.49856   1.00
H2       0.34496    1.22352    0.51708   1.00
H2       0.29986    1.25862    0.42339   1.00
H2       0.29888    1.21308    0.44627   1.00
H2       0.29196    1.25550    0.47459   1.00
H2       0.31787    1.30514    0.52633   1.00
H2       0.34497    1.33708    0.55641   1.00
H2       0.32921    1.35332    0.51122   1.00
H2       0.37915    1.26902    0.55507   1.00
H2       0.42343    1.27068    0.52982   1.00
H2       0.41140    1.30828    0.56210   1.00
H2       0.52146    1.26688    0.41406   1.00
H2       0.54766    1.26809    0.37011   1.00
H2       0.49801    1.28048    0.37030   1.00
H2       0.57005    1.20125    0.38891   1.00
H2       0.53854    1.19574    0.42882   1.00
H2       0.53850    1.16122    0.39057   1.00
H2       0.41691    1.10202    0.38083   1.00
H2       0.40181    1.14435    0.40544   1.00
H2       0.39479    1.14035    0.35445   1.00
H2       0.50150    1.14416    0.32608   1.00
H2       0.47360    1.10212    0.33500   1.00
H2       0.45314    1.14085    0.30798   1.00
H2       0.43148    1.28656    0.35735   1.00
H2       0.39421    1.27381    0.32399   1.00
H2       0.39143    1.25834    0.37259   1.00
H2       0.43472    1.24044    0.27617   1.00
H2       0.47637    1.25622    0.30201   1.00
H2       0.47079    1.20657    0.28907   1.00
C4       0.22916    1.00039    0.49698   1.00
C4       0.27088    1.00085    0.49755   1.00
C3       0.20636    1.02254    0.47040   1.00
C3       0.29384    1.02611    0.47405   1.00
C3       0.20877    0.97704    0.52481   1.00
C3       0.29114    0.97466    0.52282   1.00
C2       0.14488    0.99938    0.49898   1.00
C2       0.35512    1.00062    0.50102   1.00
C3       0.16538    1.02223    0.47149   1.00
C3       0.33481    1.02576    0.47546   1.00
C3       0.16742    0.97657    0.52496   1.00
C3       0.33238    0.97594    0.52501   1.00
H1       0.21885    1.03943    0.44938   1.00
H1       0.28148    1.04567    0.45540   1.00
C5       0.22980    0.95419    0.55220   1.00
C5       0.27020    0.94758    0.54603   1.00
H1       0.15045    1.03906    0.45172   1.00
H1       0.34990    1.04445    0.45755   1.00
H1       0.15320    0.95886    0.54437   1.00
H1       0.34632    0.95878    0.54504   1.00
O3       0.21039    0.93697    0.58291   1.00
O3       0.28901    0.91711    0.56460   1.00
Si1      0.20753    0.95954    0.62478   1.00
Si1      0.29721    0.87696    0.54034   1.00
C6       0.17462    0.92696    0.64735   1.00
C6       0.25402    0.95727    0.64670   1.00
C6       0.18747    1.00685    0.62110   1.00
C6       0.28307    0.87504    0.49077   1.00
C6       0.34802    0.87145    0.54382   1.00
C6       0.27523    0.83859    0.56656   1.00
C6       0.13806    0.91512    0.62252   1.00
H2       0.19209    0.90042    0.64983   1.00
C6       0.15853    0.93506    0.68948   1.00
H2       0.26642    0.93126    0.63314   1.00
C6       0.28366    0.99096    0.63830   1.00
C6       0.25664    0.95004    0.69172   1.00
H2       0.16169    1.00182    0.60300   1.00
C6       0.17228    1.02622    0.65964   1.00
C6       0.21151    1.04009    0.60057   1.00
C6       0.23929    0.88295    0.48060   1.00
C6       0.30775    0.89734    0.45940   1.00
H2       0.28788    0.84438    0.48358   1.00
H2       0.35949    0.89486    0.52555   1.00
C6       0.36622    0.87831    0.58517   1.00
C6       0.36607    0.83266    0.52793   1.00
H2       0.29625    0.83191    0.58955   1.00
C6       0.23664    0.84863    0.58847   1.00
C6       0.26756    0.79920    0.54469   1.00
H2       0.14654    0.90296    0.59430   1.00
H2       0.11910    0.94020    0.61717   1.00
H2       0.12083    0.89270    0.63731   1.00
H2       0.15392    0.90749    0.70489   1.00
H2       0.17822    0.95261    0.70708   1.00
H2       0.13036    0.94996    0.68900   1.00
H2       0.31328    0.98222    0.64636   1.00
H2       0.28468    0.99856    0.60749   1.00
H2       0.27648    1.01708    0.65504   1.00
H2       0.24138    0.92339    0.70014   1.00
H2       0.28692    0.94627    0.70112   1.00
H2       0.24450    0.97459    0.70804   1.00
H2       0.19486    1.02633    0.68213   1.00
H2       0.16292    1.05641    0.65503   1.00
H2       0.14668    1.01122    0.67079   1.00
H2       0.23098    1.05507    0.62085   1.00
H2       0.22932    1.02982    0.57657   1.00
H2       0.19172    1.06210    0.58860   1.00
H2       0.23312    0.91406    0.47854   1.00
H2       0.23191    0.87011    0.45234   1.00
H2       0.21952    0.87030    0.50199   1.00
H2       0.29875    0.88891    0.42995   1.00
H2       0.30426    0.92882    0.46146   1.00
H2       0.33878    0.89057    0.46150   1.00
H2       0.39798    0.88083    0.58309   1.00
H2       0.35565    0.90544    0.59819   1.00
H2       0.35965    0.85445    0.60521   1.00
H2       0.35584    0.82608    0.49850   1.00
H2       0.39788    0.83500    0.52640   1.00
H2       0.35915    0.80798    0.54686   1.00
H2       0.21344    0.85735    0.56852   1.00
H2       0.22619    0.82399    0.60579   1.00
H2       0.24166    0.87259    0.60857   1.00
H2       0.25956    0.77617    0.56528   1.00
H2       0.24378    0.80201    0.52363   1.00
H2       0.29343    0.78907    0.52921   1.00
C4       0.77084    1.00039    0.50302   1.00
C4       0.72912    1.00085    0.50245   1.00
C3       0.79364    1.02254    0.52960   1.00
C3       0.70616    1.02611    0.52595   1.00
C3       0.79123    0.97704    0.47519   1.00
C3       0.70886    0.97466    0.47718   1.00
C2       0.85512    0.99938    0.50102   1.00
C2       0.64488    1.00062    0.49898   1.00
C3       0.83462    1.02223    0.52851   1.00
C3       0.66519    1.02576    0.52454   1.00
C3       0.83258    0.97657    0.47504   1.00
C3       0.66762    0.97594    0.47499   1.00
H1       0.78115    1.03943    0.55062   1.00
H1       0.71852    1.04567    0.54460   1.00
C5       0.77020    0.95419    0.44780   1.00
C5       0.72980    0.94758    0.45397   1.00
H1       0.84955    1.03906    0.54828   1.00
H1       0.65010    1.04445    0.54245   1.00
H1       0.84680    0.95886    0.45563   1.00
H1       0.65368    0.95878    0.45496   1.00
O3       0.78961    0.93697    0.41709   1.00
O3       0.71099    0.91711    0.43540   1.00
Si1      0.79247    0.95954    0.37522   1.00
Si1      0.70279    0.87696    0.45966   1.00
C6       0.82538    0.92696    0.35265   1.00
C6       0.74598    0.95727    0.35330   1.00
C6       0.81253    1.00685    0.37890   1.00
C6       0.71693    0.87504    0.50923   1.00
C6       0.65198    0.87145    0.45618   1.00
C6       0.72477    0.83859    0.43344   1.00
C6       0.86194    0.91512    0.37748   1.00
H2       0.80791    0.90042    0.35017   1.00
C6       0.84147    0.93506    0.31052   1.00
H2       0.73358    0.93126    0.36686   1.00
C6       0.71634    0.99096    0.36170   1.00
C6       0.74336    0.95004    0.30828   1.00
H2       0.83831    1.00182    0.39700   1.00
C6       0.82772    1.02622    0.34036   1.00
C6       0.78849    1.04009    0.39943   1.00
C6       0.76071    0.88295    0.51940   1.00
C6       0.69225    0.89734    0.54060   1.00
H2       0.71212    0.84438    0.51642   1.00
H2       0.64051    0.89486    0.47445   1.00
C6       0.63378    0.87831    0.41483   1.00
C6       0.63393    0.83266    0.47207   1.00
H2       0.70375    0.83191    0.41045   1.00
C6       0.76336    0.84863    0.41153   1.00
C6       0.73244    0.79920    0.45531   1.00
H2       0.85346    0.90296    0.40570   1.00
H2       0.88090    0.94020    0.38283   1.00
H2       0.87917    0.89270    0.36269   1.00
H2       0.84608    0.90749    0.29511   1.00
H2       0.82178    0.95261    0.29292   1.00
H2       0.86964    0.94996    0.31100   1.00
H2       0.68672    0.98222    0.35364   1.00
H2       0.71532    0.99856    0.39251   1.00
H2       0.72352    1.01708    0.34496   1.00
H2       0.75862    0.92339    0.29986   1.00
H2       0.71308    0.94627    0.29888   1.00
H2       0.75550    0.97459    0.29196   1.00
H2       0.80514    1.02633    0.31787   1.00
H2       0.83708    1.05641    0.34497   1.00
H2       0.85332    1.01122    0.32921   1.00
H2       0.76902    1.05507    0.37915   1.00
H2       0.77068    1.02982    0.42343   1.00
H2       0.80828    1.06210    0.41140   1.00
H2       0.76688    0.91406    0.52146   1.00
H2       0.76809    0.87011    0.54766   1.00
H2       0.78048    0.87030    0.49801   1.00
H2       0.70125    0.88891    0.57005   1.00
H2       0.69574    0.92882    0.53854   1.00
H2       0.66122    0.89057    0.53850   1.00
H2       0.60202    0.88083    0.41691   1.00
H2       0.64435    0.90544    0.40181   1.00
H2       0.64035    0.85445    0.39479   1.00
H2       0.64416    0.82608    0.50150   1.00
H2       0.60212    0.83500    0.47360   1.00
H2       0.64085    0.80798    0.45314   1.00
H2       0.78656    0.85735    0.43148   1.00
H2       0.77381    0.82399    0.39421   1.00
H2       0.75834    0.87259    0.39143   1.00
H2       0.74044    0.77617    0.43472   1.00
H2       0.75622    0.80201    0.47637   1.00
H2       0.70657    0.78907    0.47079   1.00
C4       0.49698    0.72916    0.50039   1.00
C4       0.49755    0.77088    0.50085   1.00
C3       0.47040    0.70636    0.52254   1.00
C3       0.47405    0.79384    0.52611   1.00
C3       0.52481    0.70877    0.47704   1.00
C3       0.52282    0.79114    0.47466   1.00
C2       0.49898    0.64488    0.49938   1.00
C2       0.50102    0.85512    0.50062   1.00
C3       0.47149    0.66538    0.52223   1.00
C3       0.47546    0.83481    0.52576   1.00
C3       0.52496    0.66742    0.47657   1.00
C3       0.52501    0.83238    0.47594   1.00
H1       0.44938    0.71885    0.53943   1.00
H1       0.45540    0.78148    0.54567   1.00
C5       0.55220    0.72980    0.45419   1.00
C5       0.54603    0.77020    0.44758   1.00
H1       0.45172    0.65045    0.53906   1.00
H1       0.45755    0.84990    0.54445   1.00
H1       0.54437    0.65320    0.45886   1.00
H1       0.54504    0.84632    0.45878   1.00
O3       0.58291    0.71039    0.43697   1.00
O3       0.56460    0.78901    0.41711   1.00
Si1      0.62478    0.70753    0.45954   1.00
Si1      0.54034    0.79721    0.37696   1.00
C6       0.64735    0.67462    0.42696   1.00
C6       0.64670    0.75402    0.45727   1.00
C6       0.62110    0.68747    0.50685   1.00
C6       0.49077    0.78307    0.37504   1.00
C6       0.54382    0.84802    0.37145   1.00
C6       0.56656    0.77523    0.33859   1.00
C6       0.62252    0.63806    0.41512   1.00
H2       0.64983    0.69209    0.40042   1.00
C6       0.68948    0.65853    0.43506   1.00
H2       0.63314    0.76642    0.43126   1.00
C6       0.63830    0.78366    0.49096   1.00
C6       0.69172    0.75664    0.45004   1.00
H2       0.60300    0.66169    0.50182   1.00
C6       0.65964    0.67228    0.52622   1.00
C6       0.60057    0.71151    0.54009   1.00
C6       0.48060    0.73929    0.38295   1.00
C6       0.45940    0.80775    0.39734   1.00
H2       0.48358    0.78788    0.34438   1.00
H2       0.52555    0.85949    0.39486   1.00
C6       0.58517    0.86622    0.37831   1.00
C6       0.52793    0.86607    0.33266   1.00
H2       0.58955    0.79625    0.33191   1.00
C6       0.58847    0.73664    0.34863   1.00
C6       0.54469    0.76756    0.29920   1.00
H2       0.59430    0.64654    0.40296   1.00
H2       0.61717    0.61910    0.44020   1.00
H2       0.63731    0.62083    0.39270   1.00
H2       0.70489    0.65392    0.40749   1.00
H2       0.70708    0.67822    0.45261   1.00
H2       0.68900    0.63036    0.44996   1.00
H2       0.64636    0.81328    0.48222   1.00
H2       0.60749    0.78468    0.49856   1.00
H2       0.65504    0.77648    0.51708   1.00
H2       0.70014    0.74138    0.42339   1.00
H2       0.70112    0.78692    0.44627   1.00
H2       0.70804    0.74450    0.47459   1.00
H2       0.68213    0.69486    0.52633   1.00
H2       0.65503    0.66292    0.55641   1.00
H2       0.67079    0.64668    0.51122   1.00
H2       0.62085    0.73098    0.55507   1.00
H2       0.57657    0.72932    0.52982   1.00
H2       0.58860    0.69172    0.56210   1.00
H2       0.47854    0.73312    0.41406   1.00
H2       0.45234    0.73191    0.37011   1.00
H2       0.50199    0.71952    0.37030   1.00
H2       0.42995    0.79875    0.38891   1.00
H2       0.46146    0.80426    0.42882   1.00
H2       0.46150    0.83878    0.39057   1.00
H2       0.58309    0.89798    0.38083   1.00
H2       0.59819    0.85565    0.40544   1.00
H2       0.60521    0.85965    0.35445   1.00
H2       0.49850    0.85584    0.32608   1.00
H2       0.52640    0.89788    0.33500   1.00
H2       0.54686    0.85915    0.30798   1.00
H2       0.56852    0.71344    0.35735   1.00
H2       0.60579    0.72619    0.32399   1.00
H2       0.60857    0.74166    0.37259   1.00
H2       0.56528    0.75956    0.27617   1.00
H2       0.52363    0.74378    0.30201   1.00
H2       0.52921    0.79343    0.28907   1.00
C4       0.50039    0.99698    0.22916   1.00
C4       0.50085    0.99755    0.27088   1.00
C3       0.52254    0.97040    0.20636   1.00
C3       0.52611    0.97405    0.29384   1.00
C3       0.47704    1.02481    0.20877   1.00
C3       0.47466    1.02282    0.29114   1.00
C2       0.49938    0.99898    0.14488   1.00
C2       0.50062    1.00102    0.35512   1.00
C3       0.52223    0.97149    0.16538   1.00
C3       0.52576    0.97546    0.33481   1.00
C3       0.47657    1.02496    0.16742   1.00
C3       0.47594    1.02501    0.33238   1.00
H1       0.53943    0.94938    0.21885   1.00
H1       0.54567    0.95540    0.28148   1.00
C5       0.45419    1.05220    0.22980   1.00
C5       0.44758    1.04603    0.27020   1.00
H1       0.53906    0.95172    0.15045   1.00
H1       0.54445    0.95755    0.34990   1.00
H1       0.45886    1.04437    0.15320   1.00
H1       0.45878    1.04504    0.34632   1.00
O3       0.43697    1.08291    0.21039   1.00
O3       0.41711    1.06460    0.28901   1.00
Si1      0.45954    1.12478    0.20753   1.00
Si1      0.37696    1.04034    0.29721   1.00
C6       0.42696    1.14735    0.17462   1.00
C6       0.45727    1.14670    0.25402   1.00
C6       0.50685    1.12110    0.18747   1.00
C6       0.37504    0.99077    0.28307   1.00
C6       0.37145    1.04382    0.34802   1.00
C6       0.33859    1.06656    0.27523   1.00
C6       0.41512    1.12252    0.13806   1.00
H2       0.40042    1.14983    0.19209   1.00
C6       0.43506    1.18948    0.15853   1.00
H2       0.43126    1.13314    0.26642   1.00
C6       0.49096    1.13830    0.28366   1.00
C6       0.45004    1.19172    0.25664   1.00
H2       0.50182    1.10300    0.16169   1.00
C6       0.52622    1.15964    0.17228   1.00
C6       0.54009    1.10057    0.21151   1.00
C6       0.38295    0.98060    0.23929   1.00
C6       0.39734    0.95940    0.30775   1.00
H2       0.34438    0.98358    0.28788   1.00
H2       0.39486    1.02555    0.35949   1.00
C6       0.37831    1.08517    0.36622   1.00
C6       0.33266    1.02793    0.36607   1.00
H2       0.33191    1.08955    0.29625   1.00
C6       0.34863    1.08847    0.23664   1.00
C6       0.29920    1.04469    0.26756   1.00
H2       0.40296    1.09430    0.14654   1.00
H2       0.44020    1.11717    0.11910   1.00
H2       0.39270    1.13731    0.12083   1.00
H2       0.40749    1.20489    0.15392   1.00
H2       0.45261    1.20708    0.17822   1.00
H2       0.44996    1.18900    0.13036   1.00
H2       0.48222    1.14636    0.31328   1.00
H2       0.49856    1.10749    0.28468   1.00
H2       0.51708    1.15504    0.27648   1.00
H2       0.42339    1.20014    0.24138   1.00
H2       0.44627    1.20112    0.28692   1.00
H2       0.47459    1.20804    0.24450   1.00
H2       0.52633    1.18213    0.19486   1.00
H2       0.55641    1.15503    0.16292   1.00
H2       0.51122    1.17079    0.14668   1.00
H2       0.55507    1.12085    0.23098   1.00
H2       0.52982    1.07657    0.22932   1.00
H2       0.56210    1.08860    0.19172   1.00
H2       0.41406    0.97854    0.23312   1.00
H2       0.37011    0.95234    0.23191   1.00
H2       0.37030    1.00199    0.21952   1.00
H2       0.38891    0.92995    0.29875   1.00
H2       0.42882    0.96146    0.30426   1.00
H2       0.39057    0.96150    0.33878   1.00
H2       0.38083    1.08309    0.39798   1.00
H2       0.40544    1.09819    0.35565   1.00
H2       0.35445    1.10521    0.35965   1.00
H2       0.32608    0.99850    0.35584   1.00
H2       0.33500    1.02640    0.39788   1.00
H2       0.30798    1.04686    0.35915   1.00
H2       0.35735    1.06852    0.21344   1.00
H2       0.32399    1.10579    0.22619   1.00
H2       0.37259    1.10857    0.24166   1.00
H2       0.27617    1.06528    0.25956   1.00
H2       0.30201    1.02363    0.24378   1.00
H2       0.28907    1.02921    0.29343   1.00
C4       1.00039    0.50302    0.77084   1.00
C4       1.00085    0.50245    0.72912   1.00
C3       1.02254    0.52960    0.79364   1.00
C3       1.02611    0.52595    0.70616   1.00
C3       0.97704    0.47519    0.79123   1.00
C3       0.97466    0.47718    0.70886   1.00
C2       0.99938    0.50102    0.85512   1.00
C2       1.00062    0.49898    0.64488   1.00
C3       1.02223    0.52851    0.83462   1.00
C3       1.02576    0.52454    0.66519   1.00
C3       0.97657    0.47504    0.83258   1.00
C3       0.97594    0.47499    0.66762   1.00
H1       1.03943    0.55062    0.78115   1.00
H1       1.04567    0.54460    0.71852   1.00
C5       0.95419    0.44780    0.77020   1.00
C5       0.94758    0.45397    0.72980   1.00
H1       1.03906    0.54828    0.84955   1.00
H1       1.04445    0.54245    0.65010   1.00
H1       0.95886    0.45563    0.84680   1.00
H1       0.95878    0.45496    0.65368   1.00
O3       0.93697    0.41709    0.78961   1.00
O3       0.91711    0.43540    0.71099   1.00
Si1      0.95954    0.37522    0.79247   1.00
Si1      0.87696    0.45966    0.70279   1.00
C6       0.92696    0.35265    0.82538   1.00
C6       0.95727    0.35330    0.74598   1.00
C6       1.00685    0.37890    0.81253   1.00
C6       0.87504    0.50923    0.71693   1.00
C6       0.87145    0.45618    0.65198   1.00
C6       0.83859    0.43344    0.72477   1.00
C6       0.91512    0.37748    0.86194   1.00
H2       0.90042    0.35017    0.80791   1.00
C6       0.93506    0.31052    0.84147   1.00
H2       0.93126    0.36686    0.73358   1.00
C6       0.99096    0.36170    0.71634   1.00
C6       0.95004    0.30828    0.74336   1.00
H2       1.00182    0.39700    0.83831   1.00
C6       1.02622    0.34036    0.82772   1.00
C6       1.04009    0.39943    0.78849   1.00
C6       0.88295    0.51940    0.76071   1.00
C6       0.89734    0.54060    0.69225   1.00
H2       0.84438    0.51642    0.71212   1.00
H2       0.89486    0.47445    0.64051   1.00
C6       0.87831    0.41483    0.63378   1.00
C6       0.83266    0.47207    0.63393   1.00
H2       0.83191    0.41045    0.70375   1.00
C6       0.84863    0.41153    0.76336   1.00
C6       0.79920    0.45531    0.73244   1.00
H2       0.90296    0.40570    0.85346   1.00
H2       0.94020    0.38283    0.88090   1.00
H2       0.89270    0.36269    0.87917   1.00
H2       0.90749    0.29511    0.84608   1.00
H2       0.95261    0.29292    0.82178   1.00
H2       0.94996    0.31100    0.86964   1.00
H2       0.98222    0.35364    0.68672   1.00
H2       0.99856    0.39251    0.71532   1.00
H2       1.01708    0.34496    0.72352   1.00
H2       0.92339    0.29986    0.75862   1.00
H2       0.94627    0.29888    0.71308   1.00
H2       0.97459    0.29196    0.75550   1.00
H2       1.02633    0.31787    0.80514   1.00
H2       1.05641    0.34497    0.83708   1.00
H2       1.01122    0.32921    0.85332   1.00
H2       1.05507    0.37915    0.76902   1.00
H2       1.02982    0.42343    0.77068   1.00
H2       1.06210    0.41140    0.80828   1.00
H2       0.91406    0.52146    0.76688   1.00
H2       0.87011    0.54766    0.76809   1.00
H2       0.87030    0.49801    0.78048   1.00
H2       0.88891    0.57005    0.70125   1.00
H2       0.92882    0.53854    0.69574   1.00
H2       0.89057    0.53850    0.66122   1.00
H2       0.88083    0.41691    0.60202   1.00
H2       0.90544    0.40181    0.64435   1.00
H2       0.85445    0.39479    0.64035   1.00
H2       0.82608    0.50150    0.64416   1.00
H2       0.83500    0.47360    0.60212   1.00
H2       0.80798    0.45314    0.64085   1.00
H2       0.85735    0.43148    0.78656   1.00
H2       0.82399    0.39421    0.77381   1.00
H2       0.87259    0.39143    0.75834   1.00
H2       0.77617    0.43472    0.74044   1.00
H2       0.80201    0.47637    0.75622   1.00
H2       0.78907    0.47079    0.70657   1.00
C4       1.00302    0.77084    0.50039   1.00
C4       1.00245    0.72912    0.50085   1.00
C3       1.02960    0.79364    0.52254   1.00
C3       1.02595    0.70616    0.52611   1.00
C3       0.97519    0.79123    0.47704   1.00
C3       0.97718    0.70886    0.47466   1.00
C2       1.00102    0.85512    0.49938   1.00
C2       0.99898    0.64488    0.50062   1.00
C3       1.02851    0.83462    0.52223   1.00
C3       1.02454    0.66519    0.52576   1.00
C3       0.97504    0.83258    0.47657   1.00
C3       0.97499    0.66762    0.47594   1.00
H1       1.05062    0.78115    0.53943   1.00
H1       1.04460    0.71852    0.54567   1.00
C5       0.94780    0.77020    0.45419   1.00
C5       0.95397    0.72980    0.44758   1.00
H1       1.04828    0.84955    0.53906   1.00
H1       1.04245    0.65010    0.54445   1.00
H1       0.95563    0.84680    0.45886   1.00
H1       0.95496    0.65368    0.45878   1.00
O3       0.91709    0.78961    0.43697   1.00
O3       0.93540    0.71099    0.41711   1.00
Si1      0.87522    0.79247    0.45954   1.00
Si1      0.95966    0.70279    0.37696   1.00
C6       0.85265    0.82538    0.42696   1.00
C6       0.85330    0.74598    0.45727   1.00
C6       0.87890    0.81253    0.50685   1.00
C6       1.00923    0.71693    0.37504   1.00
C6       0.95618    0.65198    0.37145   1.00
C6       0.93344    0.72477    0.33859   1.00
C6       0.87748    0.86194    0.41512   1.00
H2       0.85017    0.80791    0.40042   1.00
C6       0.81052    0.84147    0.43506   1.00
H2       0.86686    0.73358    0.43126   1.00
C6       0.86170    0.71634    0.49096   1.00
C6       0.80828    0.74336    0.45004   1.00
H2       0.89700    0.83831    0.50182   1.00
C6       0.84036    0.82772    0.52622   1.00
C6       0.89943    0.78849    0.54009   1.00
C6       1.01940    0.76071    0.38295   1.00
C6       1.04060    0.69225    0.39734   1.00
H2       1.01642    0.71212    0.34438   1.00
H2       0.97445    0.64051    0.39486   1.00
C6       0.91483    0.63378    0.37831   1.00
C6       0.97207    0.63393    0.33266   1.00
H2       0.91045    0.70375    0.33191   1.00
C6       0.91153    0.76336    0.34863   1.00
C6       0.95531    0.73244    0.29920   1.00
H2       0.90570    0.85346    0.40296   1.00
H2       0.88283    0.88090    0.44020   1.00
H2       0.86269    0.87917    0.39270   1.00
H2       0.79511    0.84608    0.40749   1.00
H2       0.79292    0.82178    0.45261   1.00
H2       0.81100    0.86964    0.44996   1.00
H2       0.85364    0.68672    0.48222   1.00
H2       0.89251    0.71532    0.49856   1.00
H2       0.84496    0.72352    0.51708   1.00
H2       0.79986    0.75862    0.42339   1.00
H2       0.79888    0.71308    0.44627   1.00
H2       0.79196    0.75550    0.47459   1.00
H2       0.81787    0.80514    0.52633   1.00
H2       0.84497    0.83708    0.55641   1.00
H2       0.82921    0.85332    0.51122   1.00
H2       0.87915    0.76902    0.55507   1.00
H2       0.92343    0.77068    0.52982   1.00
H2       0.91140    0.80828    0.56210   1.00
H2       1.02146    0.76688    0.41406   1.00
H2       1.04766    0.76809    0.37011   1.00
H2       0.99801    0.78048    0.37030   1.00
H2       1.07005    0.70125    0.38891   1.00
H2       1.03854    0.69574    0.42882   1.00
H2       1.03850    0.66122    0.39057   1.00
H2       0.91691    0.60202    0.38083   1.00
H2       0.90181    0.64435    0.40544   1.00
H2       0.89479    0.64035    0.35445   1.00
H2       1.00150    0.64416    0.32608   1.00
H2       0.97360    0.60212    0.33500   1.00
H2       0.95314    0.64085    0.30798   1.00
H2       0.93148    0.78656    0.35735   1.00
H2       0.89421    0.77381    0.32399   1.00
H2       0.89143    0.75834    0.37259   1.00
H2       0.93472    0.74044    0.27617   1.00
H2       0.97637    0.75622    0.30201   1.00
H2       0.97079    0.70657    0.28907   1.00
C4       0.72916    0.50039    0.49698   1.00
C4       0.77088    0.50085    0.49755   1.00
C3       0.70636    0.52254    0.47040   1.00
C3       0.79384    0.52611    0.47405   1.00
C3       0.70877    0.47704    0.52481   1.00
C3       0.79114    0.47466    0.52282   1.00
C2       0.64488    0.49938    0.49898   1.00
C2       0.85512    0.50062    0.50102   1.00
C3       0.66538    0.52223    0.47149   1.00
C3       0.83481    0.52576    0.47546   1.00
C3       0.66742    0.47657    0.52496   1.00
C3       0.83238    0.47594    0.52501   1.00
H1       0.71885    0.53943    0.44938   1.00
H1       0.78148    0.54567    0.45540   1.00
C5       0.72980    0.45419    0.55220   1.00
C5       0.77020    0.44758    0.54603   1.00
H1       0.65045    0.53906    0.45172   1.00
H1       0.84990    0.54445    0.45755   1.00
H1       0.65320    0.45886    0.54437   1.00
H1       0.84632    0.45878    0.54504   1.00
O3       0.71039    0.43697    0.58291   1.00
O3       0.78901    0.41711    0.56460   1.00
Si1      0.70753    0.45954    0.62478   1.00
Si1      0.79721    0.37696    0.54034   1.00
C6       0.67462    0.42696    0.64735   1.00
C6       0.75402    0.45727    0.64670   1.00
C6       0.68747    0.50685    0.62110   1.00
C6       0.78307    0.37504    0.49077   1.00
C6       0.84802    0.37145    0.54382   1.00
C6       0.77523    0.33859    0.56656   1.00
C6       0.63806    0.41512    0.62252   1.00
H2       0.69209    0.40042    0.64983   1.00
C6       0.65853    0.43506    0.68948   1.00
H2       0.76642    0.43126    0.63314   1.00
C6       0.78366    0.49096    0.63830   1.00
C6       0.75664    0.45004    0.69172   1.00
H2       0.66169    0.50182    0.60300   1.00
C6       0.67228    0.52622    0.65964   1.00
C6       0.71151    0.54009    0.60057   1.00
C6       0.73929    0.38295    0.48060   1.00
C6       0.80775    0.39734    0.45940   1.00
H2       0.78788    0.34438    0.48358   1.00
H2       0.85949    0.39486    0.52555   1.00
C6       0.86622    0.37831    0.58517   1.00
C6       0.86607    0.33266    0.52793   1.00
H2       0.79625    0.33191    0.58955   1.00
C6       0.73664    0.34863    0.58847   1.00
C6       0.76756    0.29920    0.54469   1.00
H2       0.64654    0.40296    0.59430   1.00
H2       0.61910    0.44020    0.61717   1.00
H2       0.62083    0.39270    0.63731   1.00
H2       0.65392    0.40749    0.70489   1.00
H2       0.67822    0.45261    0.70708   1.00
H2       0.63036    0.44996    0.68900   1.00
H2       0.81328    0.48222    0.64636   1.00
H2       0.78468    0.49856    0.60749   1.00
H2       0.77648    0.51708    0.65504   1.00
H2       0.74138    0.42339    0.70014   1.00
H2       0.78692    0.44627    0.70112   1.00
H2       0.74450    0.47459    0.70804   1.00
H2       0.69486    0.52633    0.68213   1.00
H2       0.66292    0.55641    0.65503   1.00
H2       0.64668    0.51122    0.67079   1.00
H2       0.73098    0.55507    0.62085   1.00
H2       0.72932    0.52982    0.57657   1.00
H2       0.69172    0.56210    0.58860   1.00
H2       0.73312    0.41406    0.47854   1.00
H2       0.73191    0.37011    0.45234   1.00
H2       0.71952    0.37030    0.50199   1.00
H2       0.79875    0.38891    0.42995   1.00
H2       0.80426    0.42882    0.46146   1.00
H2       0.83878    0.39057    0.46150   1.00
H2       0.89798    0.38083    0.58309   1.00
H2       0.85565    0.40544    0.59819   1.00
H2       0.85965    0.35445    0.60521   1.00
H2       0.85584    0.32608    0.49850   1.00
H2       0.89788    0.33500    0.52640   1.00
H2       0.85915    0.30798    0.54686   1.00
H2       0.71344    0.35735    0.56852   1.00
H2       0.72619    0.32399    0.60579   1.00
H2       0.74166    0.37259    0.60857   1.00
H2       0.75956    0.27617    0.56528   1.00
H2       0.74378    0.30201    0.52363   1.00
H2       0.79343    0.28907    0.52921   1.00
C4       1.27084    0.50039    0.50302   1.00
C4       1.22912    0.50085    0.50245   1.00
C3       1.29364    0.52254    0.52960   1.00
C3       1.20616    0.52611    0.52595   1.00
C3       1.29123    0.47704    0.47519   1.00
C3       1.20886    0.47466    0.47718   1.00
C2       1.35512    0.49938    0.50102   1.00
C2       1.14488    0.50062    0.49898   1.00
C3       1.33462    0.52223    0.52851   1.00
C3       1.16519    0.52576    0.52454   1.00
C3       1.33258    0.47657    0.47504   1.00
C3       1.16762    0.47594    0.47499   1.00
H1       1.28115    0.53943    0.55062   1.00
H1       1.21852    0.54567    0.54460   1.00
C5       1.27020    0.45419    0.44780   1.00
C5       1.22980    0.44758    0.45397   1.00
H1       1.34955    0.53906    0.54828   1.00
H1       1.15010    0.54445    0.54245   1.00
H1       1.34680    0.45886    0.45563   1.00
H1       1.15368    0.45878    0.45496   1.00
O3       1.28961    0.43697    0.41709   1.00
O3       1.21099    0.41711    0.43540   1.00
Si1      1.29247    0.45954    0.37522   1.00
Si1      1.20279    0.37696    0.45966   1.00
C6       1.32538    0.42696    0.35265   1.00
C6       1.24598    0.45727    0.35330   1.00
C6       1.31253    0.50685    0.37890   1.00
C6       1.21693    0.37504    0.50923   1.00
C6       1.15198    0.37145    0.45618   1.00
C6       1.22477    0.33859    0.43344   1.00
C6       1.36194    0.41512    0.37748   1.00
H2       1.30791    0.40042    0.35017   1.00
C6       1.34147    0.43506    0.31052   1.00
H2       1.23358    0.43126    0.36686   1.00
C6       1.21634    0.49096    0.36170   1.00
C6       1.24336    0.45004    0.30828   1.00
H2       1.33831    0.50182    0.39700   1.00
C6       1.32772    0.52622    0.34036   1.00
C6       1.28849    0.54009    0.39943   1.00
C6       1.26071    0.38295    0.51940   1.00
C6       1.19225    0.39734    0.54060   1.00
H2       1.21212    0.34438    0.51642   1.00
H2       1.14051    0.39486    0.47445   1.00
C6       1.13378    0.37831    0.41483   1.00
C6       1.13393    0.33266    0.47207   1.00
H2       1.20375    0.33191    0.41045   1.00
C6       1.26336    0.34863    0.41153   1.00
C6       1.23244    0.29920    0.45531   1.00
H2       1.35346    0.40296    0.40570   1.00
H2       1.38090    0.44020    0.38283   1.00
H2       1.37917    0.39270    0.36269   1.00
H2       1.34608    0.40749    0.29511   1.00
H2       1.32178    0.45261    0.29292   1.00
H2       1.36964    0.44996    0.31100   1.00
H2       1.18672    0.48222    0.35364   1.00
H2       1.21532    0.49856    0.39251   1.00
H2       1.22352    0.51708    0.34496   1.00
H2       1.25862    0.42339    0.29986   1.00
H2       1.21308    0.44627    0.29888   1.00
H2       1.25550    0.47459    0.29196   1.00
H2       1.30514    0.52633    0.31787   1.00
H2       1.33708    0.55641    0.34497   1.00
H2       1.35332    0.51122    0.32921   1.00
H2       1.26902    0.55507    0.37915   1.00
H2       1.27068    0.52982    0.42343   1.00
H2       1.30828    0.56210    0.41140   1.00
H2       1.26688    0.41406    0.52146   1.00
H2       1.26809    0.37011    0.54766   1.00
H2       1.28048    0.37030    0.49801   1.00
H2       1.20125    0.38891    0.57005   1.00
H2       1.19574    0.42882    0.53854   1.00
H2       1.16122    0.39057    0.53850   1.00
H2       1.10202    0.38083    0.41691   1.00
H2       1.14435    0.40544    0.40181   1.00
H2       1.14035    0.35445    0.39479   1.00
H2       1.14416    0.32608    0.50150   1.00
H2       1.10212    0.33500    0.47360   1.00
H2       1.14085    0.30798    0.45314   1.00
H2       1.28656    0.35735    0.43148   1.00
H2       1.27381    0.32399    0.39421   1.00
H2       1.25834    0.37259    0.39143   1.00
H2       1.24044    0.27617    0.43472   1.00
H2       1.25622    0.30201    0.47637   1.00
H2       1.20657    0.28907    0.47079   1.00
C4       0.99698    0.22916    0.50039   1.00
C4       0.99755    0.27088    0.50085   1.00
C3       0.97040    0.20636    0.52254   1.00
C3       0.97405    0.29384    0.52611   1.00
C3       1.02481    0.20877    0.47704   1.00
C3       1.02282    0.29114    0.47466   1.00
C2       0.99898    0.14488    0.49938   1.00
C2       1.00102    0.35512    0.50062   1.00
C3       0.97149    0.16538    0.52223   1.00
C3       0.97546    0.33481    0.52576   1.00
C3       1.02496    0.16742    0.47657   1.00
C3       1.02501    0.33238    0.47594   1.00
H1       0.94938    0.21885    0.53943   1.00
H1       0.95540    0.28148    0.54567   1.00
C5       1.05220    0.22980    0.45419   1.00
C5       1.04603    0.27020    0.44758   1.00
H1       0.95172    0.15045    0.53906   1.00
H1       0.95755    0.34990    0.54445   1.00
H1       1.04437    0.15320    0.45886   1.00
H1       1.04504    0.34632    0.45878   1.00
O3       1.08291    0.21039    0.43697   1.00
O3       1.06460    0.28901    0.41711   1.00
Si1      1.12478    0.20753    0.45954   1.00
Si1      1.04034    0.29721    0.37696   1.00
C6       1.14735    0.17462    0.42696   1.00
C6       1.14670    0.25402    0.45727   1.00
C6       1.12110    0.18747    0.50685   1.00
C6       0.99077    0.28307    0.37504   1.00
C6       1.04382    0.34802    0.37145   1.00
C6       1.06656    0.27523    0.33859   1.00
C6       1.12252    0.13806    0.41512   1.00
H2       1.14983    0.19209    0.40042   1.00
C6       1.18948    0.15853    0.43506   1.00
H2       1.13314    0.26642    0.43126   1.00
C6       1.13830    0.28366    0.49096   1.00
C6       1.19172    0.25664    0.45004   1.00
H2       1.10300    0.16169    0.50182   1.00
C6       1.15964    0.17228    0.52622   1.00
C6       1.10057    0.21151    0.54009   1.00
C6       0.98060    0.23929    0.38295   1.00
C6       0.95940    0.30775    0.39734   1.00
H2       0.98358    0.28788    0.34438   1.00
H2       1.02555    0.35949    0.39486   1.00
C6       1.08517    0.36622    0.37831   1.00
C6       1.02793    0.36607    0.33266   1.00
H2       1.08955    0.29625    0.33191   1.00
C6       1.08847    0.23664    0.34863   1.00
C6       1.04469    0.26756    0.29920   1.00
H2       1.09430    0.14654    0.40296   1.00
H2       1.11717    0.11910    0.44020   1.00
H2       1.13731    0.12083    0.39270   1.00
H2       1.20489    0.15392    0.40749   1.00
H2       1.20708    0.17822    0.45261   1.00
H2       1.18900    0.13036    0.44996   1.00
H2       1.14636    0.31328    0.48222   1.00
H2       1.10749    0.28468    0.49856   1.00
H2       1.15504    0.27648    0.51708   1.00
H2       1.20014    0.24138    0.42339   1.00
H2       1.20112    0.28692    0.44627   1.00
H2       1.20804    0.24450    0.47459   1.00
H2       1.18213    0.19486    0.52633   1.00
H2       1.15503    0.16292    0.55641   1.00
H2       1.17079    0.14668    0.51122   1.00
H2       1.12085    0.23098    0.55507   1.00
H2       1.07657    0.22932    0.52982   1.00
H2       1.08860    0.19172    0.56210   1.00
H2       0.97854    0.23312    0.41406   1.00
H2       0.95234    0.23191    0.37011   1.00
H2       1.00199    0.21952    0.37030   1.00
H2       0.92995    0.29875    0.38891   1.00
H2       0.96146    0.30426    0.42882   1.00
H2       0.96150    0.33878    0.39057   1.00
H2       1.08309    0.39798    0.38083   1.00
H2       1.09819    0.35565    0.40544   1.00
H2       1.10521    0.35965    0.35445   1.00
H2       0.99850    0.35584    0.32608   1.00
H2       1.02640    0.39788    0.33500   1.00
H2       1.04686    0.35915    0.30798   1.00
H2       1.06852    0.21344    0.35735   1.00
H2       1.10579    0.22619    0.32399   1.00
H2       1.10857    0.24166    0.37259   1.00
H2       1.06528    0.25956    0.27617   1.00
H2       1.02363    0.24378    0.30201   1.00
H2       1.02921    0.29343    0.28907   1.00
C4       1.00039    0.49698    0.22916   1.00
C4       1.00085    0.49755    0.27088   1.00
C3       1.02254    0.47040    0.20636   1.00
C3       1.02611    0.47405    0.29384   1.00
C3       0.97704    0.52481    0.20877   1.00
C3       0.97466    0.52282    0.29114   1.00
C2       0.99938    0.49898    0.14488   1.00
C2       1.00062    0.50102    0.35512   1.00
C3       1.02223    0.47149    0.16538   1.00
C3       1.02576    0.47546    0.33481   1.00
C3       0.97657    0.52496    0.16742   1.00
C3       0.97594    0.52501    0.33238   1.00
H1       1.03943    0.44938    0.21885   1.00
H1       1.04567    0.45540    0.28148   1.00
C5       0.95419    0.55220    0.22980   1.00
C5       0.94758    0.54603    0.27020   1.00
H1       1.03906    0.45172    0.15045   1.00
H1       1.04445    0.45755    0.34990   1.00
H1       0.95886    0.54437    0.15320   1.00
H1       0.95878    0.54504    0.34632   1.00
O3       0.93697    0.58291    0.21039   1.00
O3       0.91711    0.56460    0.28901   1.00
Si1      0.95954    0.62478    0.20753   1.00
Si1      0.87696    0.54034    0.29721   1.00
C6       0.92696    0.64735    0.17462   1.00
C6       0.95727    0.64670    0.25402   1.00
C6       1.00685    0.62110    0.18747   1.00
C6       0.87504    0.49077    0.28307   1.00
C6       0.87145    0.54382    0.34802   1.00
C6       0.83859    0.56656    0.27523   1.00
C6       0.91512    0.62252    0.13806   1.00
H2       0.90042    0.64983    0.19209   1.00
C6       0.93506    0.68948    0.15853   1.00
H2       0.93126    0.63314    0.26642   1.00
C6       0.99096    0.63830    0.28366   1.00
C6       0.95004    0.69172    0.25664   1.00
H2       1.00182    0.60300    0.16169   1.00
C6       1.02622    0.65964    0.17228   1.00
C6       1.04009    0.60057    0.21151   1.00
C6       0.88295    0.48060    0.23929   1.00
C6       0.89734    0.45940    0.30775   1.00
H2       0.84438    0.48358    0.28788   1.00
H2       0.89486    0.52555    0.35949   1.00
C6       0.87831    0.58517    0.36622   1.00
C6       0.83266    0.52793    0.36607   1.00
H2       0.83191    0.58955    0.29625   1.00
C6       0.84863    0.58847    0.23664   1.00
C6       0.79920    0.54469    0.26756   1.00
H2       0.90296    0.59430    0.14654   1.00
H2       0.94020    0.61717    0.11910   1.00
H2       0.89270    0.63731    0.12083   1.00
H2       0.90749    0.70489    0.15392   1.00
H2       0.95261    0.70708    0.17822   1.00
H2       0.94996    0.68900    0.13036   1.00
H2       0.98222    0.64636    0.31328   1.00
H2       0.99856    0.60749    0.28468   1.00
H2       1.01708    0.65504    0.27648   1.00
H2       0.92339    0.70014    0.24138   1.00
H2       0.94627    0.70112    0.28692   1.00
H2       0.97459    0.70804    0.24450   1.00
H2       1.02633    0.68213    0.19486   1.00
H2       1.05641    0.65503    0.16292   1.00
H2       1.01122    0.67079    0.14668   1.00
H2       1.05507    0.62085    0.23098   1.00
H2       1.02982    0.57657    0.22932   1.00
H2       1.06210    0.58860    0.19172   1.00
H2       0.91406    0.47854    0.23312   1.00
H2       0.87011    0.45234    0.23191   1.00
H2       0.87030    0.50199    0.21952   1.00
H2       0.88891    0.42995    0.29875   1.00
H2       0.92882    0.46146    0.30426   1.00
H2       0.89057    0.46150    0.33878   1.00
H2       0.88083    0.58309    0.39798   1.00
H2       0.90544    0.59819    0.35565   1.00
H2       0.85445    0.60521    0.35965   1.00
H2       0.82608    0.49850    0.35584   1.00
H2       0.83500    0.52640    0.39788   1.00
H2       0.80798    0.54686    0.35915   1.00
H2       0.85735    0.56852    0.21344   1.00
H2       0.82399    0.60579    0.22619   1.00
H2       0.87259    0.60857    0.24166   1.00
H2       0.77617    0.56528    0.25956   1.00
H2       0.80201    0.52363    0.24378   1.00
H2       0.78907    0.52921    0.29343   1.00
