data_IRMOF10_SG202_interpen_Ligand8lp_label_a.

_audit_creation_method             'generated by an auxiliary program of Tobunporous'

_symmetry_space_group_name_H-M     'P 1'
_symmetry_Int_Tables_number        1
_symmetry_cell_setting             triclinic

_cell_length_a                    34.2800
_cell_length_b                    34.2800
_cell_length_c                    34.2800
_cell_angle_alpha                 90.0000
_cell_angle_beta                  90.0000
_cell_angle_gamma                 90.0000

loop_
_atom_site_label
_atom_site_fract_x
_atom_site_fract_y
_atom_site_fract_z
_atom_site_occupancy
O1       0.75000    0.75000    0.75000   1.00
Zn1      0.71720    0.78280    0.78280   1.00
Zn1      0.78280    0.71720    0.78280   1.00
Zn1      0.78280    0.78280    0.71720   1.00
Zn1      0.71720    0.71720    0.71720   1.00
O2       0.72650    0.77350    0.83820   1.00
O2       0.72650    0.83820    0.77350   1.00
O2       0.66180    0.77350    0.77350   1.00
O2       0.77350    0.72650    0.83820   1.00
O2       0.83820    0.72650    0.77350   1.00
O2       0.77350    0.66180    0.77350   1.00
O2       0.77350    0.83820    0.72650   1.00
O2       0.83820    0.77350    0.72650   1.00
O2       0.77350    0.77350    0.66180   1.00
O2       0.66180    0.72650    0.72650   1.00
O2       0.72650    0.66180    0.72650   1.00
O2       0.72650    0.72650    0.66180   1.00
C1       0.75000    0.75000    0.85520   1.00
C1       0.75000    0.85520    0.75000   1.00
C1       0.64480    0.75000    0.75000   1.00
C1       0.85520    0.75000    0.75000   1.00
C1       0.75000    0.64480    0.75000   1.00
C1       0.75000    0.75000    0.64480   1.00
O1       0.25000    0.25000    0.75000   1.00
Zn1      0.21720    0.28280    0.78280   1.00
Zn1      0.28280    0.21720    0.78280   1.00
Zn1      0.28280    0.28280    0.71720   1.00
Zn1      0.21720    0.21720    0.71720   1.00
O2       0.22650    0.27350    0.83820   1.00
O2       0.22650    0.33820    0.77350   1.00
O2       0.16180    0.27350    0.77350   1.00
O2       0.27350    0.22650    0.83820   1.00
O2       0.33820    0.22650    0.77350   1.00
O2       0.27350    0.16180    0.77350   1.00
O2       0.27350    0.33820    0.72650   1.00
O2       0.33820    0.27350    0.72650   1.00
O2       0.27350    0.27350    0.66180   1.00
O2       0.16180    0.22650    0.72650   1.00
O2       0.22650    0.16180    0.72650   1.00
O2       0.22650    0.22650    0.66180   1.00
C1       0.25000    0.25000    0.85520   1.00
C1       0.25000    0.35520    0.75000   1.00
C1       0.14480    0.25000    0.75000   1.00
C1       0.35520    0.25000    0.75000   1.00
C1       0.25000    0.14480    0.75000   1.00
C1       0.25000    0.25000    0.64480   1.00
O1       0.25000    0.75000    0.25000   1.00
Zn1      0.21720    0.78280    0.28280   1.00
Zn1      0.28280    0.71720    0.28280   1.00
Zn1      0.28280    0.78280    0.21720   1.00
Zn1      0.21720    0.71720    0.21720   1.00
O2       0.22650    0.77350    0.33820   1.00
O2       0.22650    0.83820    0.27350   1.00
O2       0.16180    0.77350    0.27350   1.00
O2       0.27350    0.72650    0.33820   1.00
O2       0.33820    0.72650    0.27350   1.00
O2       0.27350    0.66180    0.27350   1.00
O2       0.27350    0.83820    0.22650   1.00
O2       0.33820    0.77350    0.22650   1.00
O2       0.27350    0.77350    0.16180   1.00
O2       0.16180    0.72650    0.22650   1.00
O2       0.22650    0.66180    0.22650   1.00
O2       0.22650    0.72650    0.16180   1.00
C1       0.25000    0.75000    0.35520   1.00
C1       0.25000    0.85520    0.25000   1.00
C1       0.14480    0.75000    0.25000   1.00
C1       0.35520    0.75000    0.25000   1.00
C1       0.25000    0.64480    0.25000   1.00
C1       0.25000    0.75000    0.14480   1.00
O1       0.75000    0.25000    0.25000   1.00
Zn1      0.71720    0.28280    0.28280   1.00
Zn1      0.78280    0.21720    0.28280   1.00
Zn1      0.78280    0.28280    0.21720   1.00
Zn1      0.71720    0.21720    0.21720   1.00
O2       0.72650    0.27350    0.33820   1.00
O2       0.72650    0.33820    0.27350   1.00
O2       0.66180    0.27350    0.27350   1.00
O2       0.77350    0.22650    0.33820   1.00
O2       0.83820    0.22650    0.27350   1.00
O2       0.77350    0.16180    0.27350   1.00
O2       0.77350    0.33820    0.22650   1.00
O2       0.83820    0.27350    0.22650   1.00
O2       0.77350    0.27350    0.16180   1.00
O2       0.66180    0.22650    0.22650   1.00
O2       0.72650    0.16180    0.22650   1.00
O2       0.72650    0.22650    0.16180   1.00
C1       0.75000    0.25000    0.35520   1.00
C1       0.75000    0.35520    0.25000   1.00
C1       0.64480    0.25000    0.25000   1.00
C1       0.85520    0.25000    0.25000   1.00
C1       0.75000    0.14480    0.25000   1.00
C1       0.75000    0.25000    0.14480   1.00
O1       0.25000    0.25000    0.25000   1.00
Zn1      0.28280    0.21720    0.21720   1.00
Zn1      0.21720    0.28280    0.21720   1.00
Zn1      0.21720    0.21720    0.28280   1.00
Zn1      0.28280    0.28280    0.28280   1.00
O2       0.27350    0.22650    0.16180   1.00
O2       0.27350    0.16180    0.22650   1.00
O2       0.33820    0.22650    0.22650   1.00
O2       0.22650    0.27350    0.16180   1.00
O2       0.16180    0.27350    0.22650   1.00
O2       0.22650    0.33820    0.22650   1.00
O2       0.22650    0.16180    0.27350   1.00
O2       0.16180    0.22650    0.27350   1.00
O2       0.22650    0.22650    0.33820   1.00
O2       0.33820    0.27350    0.27350   1.00
O2       0.27350    0.33820    0.27350   1.00
O2       0.27350    0.27350    0.33820   1.00
C1       0.25000    0.25000    0.14480   1.00
C1       0.25000    0.14480    0.25000   1.00
C1       0.35520    0.25000    0.25000   1.00
C1       0.14480    0.25000    0.25000   1.00
C1       0.25000    0.35520    0.25000   1.00
C1       0.25000    0.25000    0.35520   1.00
O1       0.75000    0.75000    0.25000   1.00
Zn1      0.78280    0.71720    0.21720   1.00
Zn1      0.71720    0.78280    0.21720   1.00
Zn1      0.71720    0.71720    0.28280   1.00
Zn1      0.78280    0.78280    0.28280   1.00
O2       0.77350    0.72650    0.16180   1.00
O2       0.77350    0.66180    0.22650   1.00
O2       0.83820    0.72650    0.22650   1.00
O2       0.72650    0.77350    0.16180   1.00
O2       0.66180    0.77350    0.22650   1.00
O2       0.72650    0.83820    0.22650   1.00
O2       0.72650    0.66180    0.27350   1.00
O2       0.66180    0.72650    0.27350   1.00
O2       0.72650    0.72650    0.33820   1.00
O2       0.83820    0.77350    0.27350   1.00
O2       0.77350    0.83820    0.27350   1.00
O2       0.77350    0.77350    0.33820   1.00
C1       0.75000    0.75000    0.14480   1.00
C1       0.75000    0.64480    0.25000   1.00
C1       0.85520    0.75000    0.25000   1.00
C1       0.64480    0.75000    0.25000   1.00
C1       0.75000    0.85520    0.25000   1.00
C1       0.75000    0.75000    0.35520   1.00
O1       0.75000    0.25000    0.75000   1.00
Zn1      0.78280    0.21720    0.71720   1.00
Zn1      0.71720    0.28280    0.71720   1.00
Zn1      0.71720    0.21720    0.78280   1.00
Zn1      0.78280    0.28280    0.78280   1.00
O2       0.77350    0.22650    0.66180   1.00
O2       0.77350    0.16180    0.72650   1.00
O2       0.83820    0.22650    0.72650   1.00
O2       0.72650    0.27350    0.66180   1.00
O2       0.66180    0.27350    0.72650   1.00
O2       0.72650    0.33820    0.72650   1.00
O2       0.72650    0.16180    0.77350   1.00
O2       0.66180    0.22650    0.77350   1.00
O2       0.72650    0.22650    0.83820   1.00
O2       0.83820    0.27350    0.77350   1.00
O2       0.77350    0.33820    0.77350   1.00
O2       0.77350    0.27350    0.83820   1.00
C1       0.75000    0.25000    0.64480   1.00
C1       0.75000    0.14480    0.75000   1.00
C1       0.85520    0.25000    0.75000   1.00
C1       0.64480    0.25000    0.75000   1.00
C1       0.75000    0.35520    0.75000   1.00
C1       0.75000    0.25000    0.85520   1.00
O1       0.25000    0.75000    0.75000   1.00
Zn1      0.28280    0.71720    0.71720   1.00
Zn1      0.21720    0.78280    0.71720   1.00
Zn1      0.21720    0.71720    0.78280   1.00
Zn1      0.28280    0.78280    0.78280   1.00
O2       0.27350    0.72650    0.66180   1.00
O2       0.27350    0.66180    0.72650   1.00
O2       0.33820    0.72650    0.72650   1.00
O2       0.22650    0.77350    0.66180   1.00
O2       0.16180    0.77350    0.72650   1.00
O2       0.22650    0.83820    0.72650   1.00
O2       0.22650    0.66180    0.77350   1.00
O2       0.16180    0.72650    0.77350   1.00
O2       0.22650    0.72650    0.83820   1.00
O2       0.33820    0.77350    0.77350   1.00
O2       0.27350    0.83820    0.77350   1.00
O2       0.27350    0.77350    0.83820   1.00
C1       0.25000    0.75000    0.64480   1.00
C1       0.25000    0.64480    0.75000   1.00
C1       0.35520    0.75000    0.75000   1.00
C1       0.14480    0.75000    0.75000   1.00
C1       0.25000    0.85520    0.75000   1.00
C1       0.25000    0.75000    0.85520   1.00
O1       1.00000    1.00000    1.00000   1.00
Zn1      0.96720    1.03280    1.03280   1.00
Zn1      1.03280    0.96720    1.03280   1.00
Zn1      1.03280    1.03280    0.96720   1.00
Zn1      0.96720    0.96720    0.96720   1.00
O2       0.97650    1.02350    1.08820   1.00
O2       0.97650    1.08820    1.02350   1.00
O2       0.91180    1.02350    1.02350   1.00
O2       1.02350    0.97650    1.08820   1.00
O2       1.08820    0.97650    1.02350   1.00
O2       1.02350    0.91180    1.02350   1.00
O2       1.02350    1.08820    0.97650   1.00
O2       1.08820    1.02350    0.97650   1.00
O2       1.02350    1.02350    0.91180   1.00
O2       0.91180    0.97650    0.97650   1.00
O2       0.97650    0.91180    0.97650   1.00
O2       0.97650    0.97650    0.91180   1.00
C1       1.00000    1.00000    1.10520   1.00
C1       1.00000    1.10520    1.00000   1.00
C1       0.89480    1.00000    1.00000   1.00
C1       1.10520    1.00000    1.00000   1.00
C1       1.00000    0.89480    1.00000   1.00
C1       1.00000    1.00000    0.89480   1.00
O1       0.50000    0.50000    1.00000   1.00
Zn1      0.46720    0.53280    1.03280   1.00
Zn1      0.53280    0.46720    1.03280   1.00
Zn1      0.53280    0.53280    0.96720   1.00
Zn1      0.46720    0.46720    0.96720   1.00
O2       0.47650    0.52350    1.08820   1.00
O2       0.47650    0.58820    1.02350   1.00
O2       0.41180    0.52350    1.02350   1.00
O2       0.52350    0.47650    1.08820   1.00
O2       0.58820    0.47650    1.02350   1.00
O2       0.52350    0.41180    1.02350   1.00
O2       0.52350    0.58820    0.97650   1.00
O2       0.58820    0.52350    0.97650   1.00
O2       0.52350    0.52350    0.91180   1.00
O2       0.41180    0.47650    0.97650   1.00
O2       0.47650    0.41180    0.97650   1.00
O2       0.47650    0.47650    0.91180   1.00
C1       0.50000    0.50000    1.10520   1.00
C1       0.50000    0.60520    1.00000   1.00
C1       0.39480    0.50000    1.00000   1.00
C1       0.60520    0.50000    1.00000   1.00
C1       0.50000    0.39480    1.00000   1.00
C1       0.50000    0.50000    0.89480   1.00
O1       0.50000    1.00000    0.50000   1.00
Zn1      0.46720    1.03280    0.53280   1.00
Zn1      0.53280    0.96720    0.53280   1.00
Zn1      0.53280    1.03280    0.46720   1.00
Zn1      0.46720    0.96720    0.46720   1.00
O2       0.47650    1.02350    0.58820   1.00
O2       0.47650    1.08820    0.52350   1.00
O2       0.41180    1.02350    0.52350   1.00
O2       0.52350    0.97650    0.58820   1.00
O2       0.58820    0.97650    0.52350   1.00
O2       0.52350    0.91180    0.52350   1.00
O2       0.52350    1.08820    0.47650   1.00
O2       0.58820    1.02350    0.47650   1.00
O2       0.52350    1.02350    0.41180   1.00
O2       0.41180    0.97650    0.47650   1.00
O2       0.47650    0.91180    0.47650   1.00
O2       0.47650    0.97650    0.41180   1.00
C1       0.50000    1.00000    0.60520   1.00
C1       0.50000    1.10520    0.50000   1.00
C1       0.39480    1.00000    0.50000   1.00
C1       0.60520    1.00000    0.50000   1.00
C1       0.50000    0.89480    0.50000   1.00
C1       0.50000    1.00000    0.39480   1.00
O1       1.00000    0.50000    0.50000   1.00
Zn1      0.96720    0.53280    0.53280   1.00
Zn1      1.03280    0.46720    0.53280   1.00
Zn1      1.03280    0.53280    0.46720   1.00
Zn1      0.96720    0.46720    0.46720   1.00
O2       0.97650    0.52350    0.58820   1.00
O2       0.97650    0.58820    0.52350   1.00
O2       0.91180    0.52350    0.52350   1.00
O2       1.02350    0.47650    0.58820   1.00
O2       1.08820    0.47650    0.52350   1.00
O2       1.02350    0.41180    0.52350   1.00
O2       1.02350    0.58820    0.47650   1.00
O2       1.08820    0.52350    0.47650   1.00
O2       1.02350    0.52350    0.41180   1.00
O2       0.91180    0.47650    0.47650   1.00
O2       0.97650    0.41180    0.47650   1.00
O2       0.97650    0.47650    0.41180   1.00
C1       1.00000    0.50000    0.60520   1.00
C1       1.00000    0.60520    0.50000   1.00
C1       0.89480    0.50000    0.50000   1.00
C1       1.10520    0.50000    0.50000   1.00
C1       1.00000    0.39480    0.50000   1.00
C1       1.00000    0.50000    0.39480   1.00
O1       0.50000    0.50000    0.50000   1.00
Zn1      0.53280    0.46720    0.46720   1.00
Zn1      0.46720    0.53280    0.46720   1.00
Zn1      0.46720    0.46720    0.53280   1.00
Zn1      0.53280    0.53280    0.53280   1.00
O2       0.52350    0.47650    0.41180   1.00
O2       0.52350    0.41180    0.47650   1.00
O2       0.58820    0.47650    0.47650   1.00
O2       0.47650    0.52350    0.41180   1.00
O2       0.41180    0.52350    0.47650   1.00
O2       0.47650    0.58820    0.47650   1.00
O2       0.47650    0.41180    0.52350   1.00
O2       0.41180    0.47650    0.52350   1.00
O2       0.47650    0.47650    0.58820   1.00
O2       0.58820    0.52350    0.52350   1.00
O2       0.52350    0.58820    0.52350   1.00
O2       0.52350    0.52350    0.58820   1.00
C1       0.50000    0.50000    0.39480   1.00
C1       0.50000    0.39480    0.50000   1.00
C1       0.60520    0.50000    0.50000   1.00
C1       0.39480    0.50000    0.50000   1.00
C1       0.50000    0.60520    0.50000   1.00
C1       0.50000    0.50000    0.60520   1.00
O1       1.00000    1.00000    0.50000   1.00
Zn1      1.03280    0.96720    0.46720   1.00
Zn1      0.96720    1.03280    0.46720   1.00
Zn1      0.96720    0.96720    0.53280   1.00
Zn1      1.03280    1.03280    0.53280   1.00
O2       1.02350    0.97650    0.41180   1.00
O2       1.02350    0.91180    0.47650   1.00
O2       1.08820    0.97650    0.47650   1.00
O2       0.97650    1.02350    0.41180   1.00
O2       0.91180    1.02350    0.47650   1.00
O2       0.97650    1.08820    0.47650   1.00
O2       0.97650    0.91180    0.52350   1.00
O2       0.91180    0.97650    0.52350   1.00
O2       0.97650    0.97650    0.58820   1.00
O2       1.08820    1.02350    0.52350   1.00
O2       1.02350    1.08820    0.52350   1.00
O2       1.02350    1.02350    0.58820   1.00
C1       1.00000    1.00000    0.39480   1.00
C1       1.00000    0.89480    0.50000   1.00
C1       1.10520    1.00000    0.50000   1.00
C1       0.89480    1.00000    0.50000   1.00
C1       1.00000    1.10520    0.50000   1.00
C1       1.00000    1.00000    0.60520   1.00
O1       1.00000    0.50000    1.00000   1.00
Zn1      1.03280    0.46720    0.96720   1.00
Zn1      0.96720    0.53280    0.96720   1.00
Zn1      0.96720    0.46720    1.03280   1.00
Zn1      1.03280    0.53280    1.03280   1.00
O2       1.02350    0.47650    0.91180   1.00
O2       1.02350    0.41180    0.97650   1.00
O2       1.08820    0.47650    0.97650   1.00
O2       0.97650    0.52350    0.91180   1.00
O2       0.91180    0.52350    0.97650   1.00
O2       0.97650    0.58820    0.97650   1.00
O2       0.97650    0.41180    1.02350   1.00
O2       0.91180    0.47650    1.02350   1.00
O2       0.97650    0.47650    1.08820   1.00
O2       1.08820    0.52350    1.02350   1.00
O2       1.02350    0.58820    1.02350   1.00
O2       1.02350    0.52350    1.08820   1.00
C1       1.00000    0.50000    0.89480   1.00
C1       1.00000    0.39480    1.00000   1.00
C1       1.10520    0.50000    1.00000   1.00
C1       0.89480    0.50000    1.00000   1.00
C1       1.00000    0.60520    1.00000   1.00
C1       1.00000    0.50000    1.10520   1.00
O1       0.50000    1.00000    1.00000   1.00
Zn1      0.53280    0.96720    0.96720   1.00
Zn1      0.46720    1.03280    0.96720   1.00
Zn1      0.46720    0.96720    1.03280   1.00
Zn1      0.53280    1.03280    1.03280   1.00
O2       0.52350    0.97650    0.91180   1.00
O2       0.52350    0.91180    0.97650   1.00
O2       0.58820    0.97650    0.97650   1.00
O2       0.47650    1.02350    0.91180   1.00
O2       0.41180    1.02350    0.97650   1.00
O2       0.47650    1.08820    0.97650   1.00
O2       0.47650    0.91180    1.02350   1.00
O2       0.41180    0.97650    1.02350   1.00
O2       0.47650    0.97650    1.08820   1.00
O2       0.58820    1.02350    1.02350   1.00
O2       0.52350    1.08820    1.02350   1.00
O2       0.52350    1.02350    1.08820   1.00
C1       0.50000    1.00000    0.89480   1.00
C1       0.50000    0.89480    1.00000   1.00
C1       0.60520    1.00000    1.00000   1.00
C1       0.39480    1.00000    1.00000   1.00
C1       0.50000    1.10520    1.00000   1.00
C1       0.50000    1.00000    1.10520   1.00
C4       0.74998    0.75010    0.97915   1.00
C4       0.75002    0.74990    1.02085   1.00
C3       0.71953    0.76692    0.95708   1.00
C3       0.77312    0.77647    1.04225   1.00
C3       0.78112    0.73310    0.95816   1.00
C3a      0.72642    0.72332    1.04263   1.00
C2       0.75113    0.74901    0.89483   1.00
C2       0.74913    0.75118    1.10517   1.00
C3       0.72015    0.76633    0.91566   1.00
C3       0.77262    0.77706    1.08359   1.00
C3       0.78158    0.73242    0.91680   1.00
C3       0.72625    0.72447    1.08415   1.00
H1       0.69518    0.78052    0.97192   1.00
H1       0.79146    0.79710    1.02685   1.00
H1       0.69627    0.77945    0.89968   1.00
H1       0.79067    0.79795    1.09895   1.00
H1       0.80571    0.71862    0.90179   1.00
H1       0.70838    0.70414    1.10043   1.00
C5       0.70169    0.69281    1.02239   1.00
H1       0.80473    0.71933    0.97401   1.00
H2       0.68245    0.67750    1.04354   1.00
H2       0.68210    0.70734    1.00103   1.00
N1       0.72634    0.66388    1.00292   1.00
C6       0.75309    0.64080    1.02012   1.00
C6       0.72614    0.65521    0.96460   1.00
C6       0.77046    0.61734    0.99243   1.00
C6       0.75333    0.62653    0.95711   1.00
H3       0.75984    0.64109    1.05099   1.00
H3       0.70769    0.66920    0.94309   1.00
H3       0.79307    0.59591    0.99741   1.00
H3       0.75994    0.61378    0.92903   1.00
C4       0.75010    0.97915    0.74998   1.00
C4       0.74990    1.02085    0.75002   1.00
C3       0.76692    0.95708    0.71953   1.00
C3       0.77647    1.04225    0.77312   1.00
C3       0.73310    0.95816    0.78112   1.00
C3a      0.72332    1.04263    0.72642   1.00
C2       0.74901    0.89483    0.75113   1.00
C2       0.75118    1.10517    0.74913   1.00
C3       0.76633    0.91566    0.72015   1.00
C3       0.77706    1.08359    0.77262   1.00
C3       0.73242    0.91680    0.78158   1.00
C3       0.72447    1.08415    0.72625   1.00
H1       0.78052    0.97192    0.69518   1.00
H1       0.79710    1.02685    0.79146   1.00
H1       0.77945    0.89968    0.69627   1.00
H1       0.79795    1.09895    0.79067   1.00
H1       0.71862    0.90179    0.80571   1.00
H1       0.70414    1.10043    0.70838   1.00
C5       0.69281    1.02239    0.70169   1.00
H1       0.71933    0.97401    0.80473   1.00
H2       0.67750    1.04354    0.68245   1.00
H2       0.70734    1.00103    0.68210   1.00
N1       0.66388    1.00292    0.72634   1.00
C6       0.64080    1.02012    0.75309   1.00
C6       0.65521    0.96460    0.72614   1.00
C6       0.61734    0.99243    0.77046   1.00
C6       0.62653    0.95711    0.75333   1.00
H3       0.64109    1.05099    0.75984   1.00
H3       0.66920    0.94309    0.70769   1.00
H3       0.59591    0.99741    0.79307   1.00
H3       0.61378    0.92903    0.75994   1.00
C4       0.52085    0.74998    0.74990   1.00
C4       0.47915    0.75002    0.75010   1.00
C3       0.54292    0.71953    0.73308   1.00
C3       0.45775    0.77312    0.72353   1.00
C3       0.54184    0.78112    0.76690   1.00
C3a      0.45737    0.72642    0.77668   1.00
C2       0.60517    0.75113    0.75099   1.00
C2       0.39483    0.74913    0.74882   1.00
C3       0.58434    0.72015    0.73367   1.00
C3       0.41641    0.77262    0.72294   1.00
C3       0.58320    0.78158    0.76758   1.00
C3       0.41585    0.72625    0.77553   1.00
H1       0.52808    0.69518    0.71948   1.00
H1       0.47315    0.79146    0.70290   1.00
H1       0.60032    0.69627    0.72055   1.00
H1       0.40105    0.79067    0.70205   1.00
H1       0.59821    0.80571    0.78138   1.00
H1       0.39957    0.70838    0.79586   1.00
C5       0.47761    0.70169    0.80719   1.00
H1       0.52599    0.80473    0.78067   1.00
H2       0.45646    0.68245    0.82250   1.00
H2       0.49897    0.68210    0.79266   1.00
N1       0.49708    0.72634    0.83612   1.00
C6       0.47988    0.75309    0.85920   1.00
C6       0.53540    0.72614    0.84479   1.00
C6       0.50757    0.77046    0.88266   1.00
C6       0.54289    0.75333    0.87347   1.00
H3       0.44901    0.75984    0.85891   1.00
H3       0.55691    0.70769    0.83080   1.00
H3       0.50259    0.79307    0.90409   1.00
H3       0.57097    0.75994    0.88622   1.00
C4       0.97915    0.74998    0.75010   1.00
C4       1.02085    0.75002    0.74990   1.00
C3       0.95708    0.71953    0.76692   1.00
C3       1.04225    0.77312    0.77647   1.00
C3       0.95816    0.78112    0.73310   1.00
C3a      1.04263    0.72642    0.72332   1.00
C2       0.89483    0.75113    0.74901   1.00
C2       1.10517    0.74913    0.75118   1.00
C3       0.91566    0.72015    0.76633   1.00
C3       1.08359    0.77262    0.77706   1.00
C3       0.91680    0.78158    0.73242   1.00
C3       1.08415    0.72625    0.72447   1.00
H1       0.97192    0.69518    0.78052   1.00
H1       1.02685    0.79146    0.79710   1.00
H1       0.89968    0.69627    0.77945   1.00
H1       1.09895    0.79067    0.79795   1.00
H1       0.90179    0.80571    0.71862   1.00
H1       1.10043    0.70838    0.70414   1.00
C5       1.02239    0.70169    0.69281   1.00
H1       0.97401    0.80473    0.71933   1.00
H2       1.04354    0.68245    0.67750   1.00
H2       1.00103    0.68210    0.70734   1.00
N1       1.00292    0.72634    0.66388   1.00
C6       1.02012    0.75309    0.64080   1.00
C6       0.96460    0.72614    0.65521   1.00
C6       0.99243    0.77046    0.61734   1.00
C6       0.95711    0.75333    0.62653   1.00
H3       1.05099    0.75984    0.64109   1.00
H3       0.94309    0.70769    0.66920   1.00
H3       0.99741    0.79307    0.59591   1.00
H3       0.92903    0.75994    0.61378   1.00
C4       0.74990    0.52085    0.74998   1.00
C4       0.75010    0.47915    0.75002   1.00
C3       0.73308    0.54292    0.71953   1.00
C3       0.72353    0.45775    0.77312   1.00
C3       0.76690    0.54184    0.78112   1.00
C3a      0.77668    0.45737    0.72642   1.00
C2       0.75099    0.60517    0.75113   1.00
C2       0.74882    0.39483    0.74913   1.00
C3       0.73367    0.58434    0.72015   1.00
C3       0.72294    0.41641    0.77262   1.00
C3       0.76758    0.58320    0.78158   1.00
C3       0.77553    0.41585    0.72625   1.00
H1       0.71948    0.52808    0.69518   1.00
H1       0.70290    0.47315    0.79146   1.00
H1       0.72055    0.60032    0.69627   1.00
H1       0.70205    0.40105    0.79067   1.00
H1       0.78138    0.59821    0.80571   1.00
H1       0.79586    0.39957    0.70838   1.00
C5       0.80719    0.47761    0.70169   1.00
H1       0.78067    0.52599    0.80473   1.00
H2       0.82250    0.45646    0.68245   1.00
H2       0.79266    0.49897    0.68210   1.00
N1       0.83612    0.49708    0.72634   1.00
C6       0.85920    0.47988    0.75309   1.00
C6       0.84479    0.53540    0.72614   1.00
C6       0.88266    0.50757    0.77046   1.00
C6       0.87347    0.54289    0.75333   1.00
H3       0.85891    0.44901    0.75984   1.00
H3       0.83080    0.55691    0.70769   1.00
H3       0.90409    0.50259    0.79307   1.00
H3       0.88622    0.57097    0.75994   1.00
C4       0.74998    0.74990    0.52085   1.00
C4       0.75002    0.75010    0.47915   1.00
C3       0.71953    0.73308    0.54292   1.00
C3       0.77312    0.72353    0.45775   1.00
C3       0.78112    0.76690    0.54184   1.00
C3a      0.72642    0.77668    0.45737   1.00
C2       0.75113    0.75099    0.60517   1.00
C2       0.74913    0.74882    0.39483   1.00
C3       0.72015    0.73367    0.58434   1.00
C3       0.77262    0.72294    0.41641   1.00
C3       0.78158    0.76758    0.58320   1.00
C3       0.72625    0.77553    0.41585   1.00
H1       0.69518    0.71948    0.52808   1.00
H1       0.79146    0.70290    0.47315   1.00
H1       0.69627    0.72055    0.60032   1.00
H1       0.79067    0.70205    0.40105   1.00
H1       0.80571    0.78138    0.59821   1.00
H1       0.70838    0.79586    0.39957   1.00
C5       0.70169    0.80719    0.47761   1.00
H1       0.80473    0.78067    0.52599   1.00
H2       0.68245    0.82250    0.45646   1.00
H2       0.68210    0.79266    0.49897   1.00
N1       0.72634    0.83612    0.49708   1.00
C6       0.75309    0.85920    0.47988   1.00
C6       0.72614    0.84479    0.53540   1.00
C6       0.77046    0.88266    0.50757   1.00
C6       0.75333    0.87347    0.54289   1.00
H3       0.75984    0.85891    0.44901   1.00
H3       0.70769    0.83080    0.55691   1.00
H3       0.79307    0.90409    0.50259   1.00
H3       0.75994    0.88622    0.57097   1.00
C4       0.24998    0.25010    0.97915   1.00
C4       0.25002    0.24990    1.02085   1.00
C3       0.21953    0.26692    0.95708   1.00
C3       0.27312    0.27647    1.04225   1.00
C3       0.28112    0.23310    0.95816   1.00
C3a      0.22642    0.22332    1.04263   1.00
C2       0.25113    0.24901    0.89483   1.00
C2       0.24913    0.25118    1.10517   1.00
C3       0.22015    0.26633    0.91566   1.00
C3       0.27262    0.27706    1.08359   1.00
C3       0.28158    0.23242    0.91680   1.00
C3       0.22625    0.22447    1.08415   1.00
H1       0.19518    0.28052    0.97192   1.00
H1       0.29146    0.29710    1.02685   1.00
H1       0.19627    0.27945    0.89968   1.00
H1       0.29067    0.29795    1.09895   1.00
H1       0.30571    0.21862    0.90179   1.00
H1       0.20838    0.20414    1.10043   1.00
C5       0.20169    0.19281    1.02239   1.00
H1       0.30473    0.21933    0.97401   1.00
H2       0.18245    0.17750    1.04354   1.00
H2       0.18210    0.20734    1.00103   1.00
N1       0.22634    0.16388    1.00292   1.00
C6       0.25309    0.14080    1.02012   1.00
C6       0.22614    0.15521    0.96460   1.00
C6       0.27046    0.11734    0.99243   1.00
C6       0.25333    0.12653    0.95711   1.00
H3       0.25984    0.14109    1.05099   1.00
H3       0.20769    0.16920    0.94309   1.00
H3       0.29307    0.09591    0.99741   1.00
H3       0.25994    0.11378    0.92903   1.00
C4       0.25010    0.47915    0.74998   1.00
C4       0.24990    0.52085    0.75002   1.00
C3       0.26692    0.45708    0.71953   1.00
C3       0.27647    0.54225    0.77312   1.00
C3       0.23310    0.45816    0.78112   1.00
C3a      0.22332    0.54263    0.72642   1.00
C2       0.24901    0.39483    0.75113   1.00
C2       0.25118    0.60517    0.74913   1.00
C3       0.26633    0.41566    0.72015   1.00
C3       0.27706    0.58359    0.77262   1.00
C3       0.23242    0.41680    0.78158   1.00
C3       0.22447    0.58415    0.72625   1.00
H1       0.28052    0.47192    0.69518   1.00
H1       0.29710    0.52685    0.79146   1.00
H1       0.27945    0.39968    0.69627   1.00
H1       0.29795    0.59895    0.79067   1.00
H1       0.21862    0.40179    0.80571   1.00
H1       0.20414    0.60043    0.70838   1.00
C5       0.19281    0.52239    0.70169   1.00
H1       0.21933    0.47401    0.80473   1.00
H2       0.17750    0.54354    0.68245   1.00
H2       0.20734    0.50103    0.68210   1.00
N1       0.16388    0.50292    0.72634   1.00
C6       0.14080    0.52012    0.75309   1.00
C6       0.15521    0.46460    0.72614   1.00
C6       0.11734    0.49243    0.77046   1.00
C6       0.12653    0.45711    0.75333   1.00
H3       0.14109    0.55099    0.75984   1.00
H3       0.16920    0.44309    0.70769   1.00
H3       0.09591    0.49741    0.79307   1.00
H3       0.11378    0.42903    0.75994   1.00
C4       0.02085    0.24998    0.74990   1.00
C4       -0.02085   0.25002    0.75010   1.00
C3       0.04292    0.21953    0.73308   1.00
C3       -0.04225   0.27312    0.72353   1.00
C3       0.04184    0.28112    0.76690   1.00
C3a      -0.04263   0.22642    0.77668   1.00
C2       0.10517    0.25113    0.75099   1.00
C2       -0.10517   0.24913    0.74882   1.00
C3       0.08434    0.22015    0.73367   1.00
C3       -0.08359   0.27262    0.72294   1.00
C3       0.08320    0.28158    0.76758   1.00
C3       -0.08415   0.22625    0.77553   1.00
H1       0.02808    0.19518    0.71948   1.00
H1       -0.02685   0.29146    0.70290   1.00
H1       0.10032    0.19627    0.72055   1.00
H1       -0.09895   0.29067    0.70205   1.00
H1       0.09821    0.30571    0.78138   1.00
H1       -0.10043   0.20838    0.79586   1.00
C5       -0.02239   0.20169    0.80719   1.00
H1       0.02599    0.30473    0.78067   1.00
H2       -0.04354   0.18245    0.82250   1.00
H2       -0.00103   0.18210    0.79266   1.00
N1       -0.00292   0.22634    0.83612   1.00
C6       -0.02012   0.25309    0.85920   1.00
C6       0.03540    0.22614    0.84479   1.00
C6       0.00757    0.27046    0.88266   1.00
C6       0.04289    0.25333    0.87347   1.00
H3       -0.05099   0.25984    0.85891   1.00
H3       0.05691    0.20769    0.83080   1.00
H3       0.00259    0.29307    0.90409   1.00
H3       0.07097    0.25994    0.88622   1.00
C4       0.47915    0.24998    0.75010   1.00
C4       0.52085    0.25002    0.74990   1.00
C3       0.45708    0.21953    0.76692   1.00
C3       0.54225    0.27312    0.77647   1.00
C3       0.45816    0.28112    0.73310   1.00
C3a      0.54263    0.22642    0.72332   1.00
C2       0.39483    0.25113    0.74901   1.00
C2       0.60517    0.24913    0.75118   1.00
C3       0.41566    0.22015    0.76633   1.00
C3       0.58359    0.27262    0.77706   1.00
C3       0.41680    0.28158    0.73242   1.00
C3       0.58415    0.22625    0.72447   1.00
H1       0.47192    0.19518    0.78052   1.00
H1       0.52685    0.29146    0.79710   1.00
H1       0.39968    0.19627    0.77945   1.00
H1       0.59895    0.29067    0.79795   1.00
H1       0.40179    0.30571    0.71862   1.00
H1       0.60043    0.20838    0.70414   1.00
C5       0.52239    0.20169    0.69281   1.00
H1       0.47401    0.30473    0.71933   1.00
H2       0.54354    0.18245    0.67750   1.00
H2       0.50103    0.18210    0.70734   1.00
N1       0.50292    0.22634    0.66388   1.00
C6       0.52012    0.25309    0.64080   1.00
C6       0.46460    0.22614    0.65521   1.00
C6       0.49243    0.27046    0.61734   1.00
C6       0.45711    0.25333    0.62653   1.00
H3       0.55099    0.25984    0.64109   1.00
H3       0.44309    0.20769    0.66920   1.00
H3       0.49741    0.29307    0.59591   1.00
H3       0.42903    0.25994    0.61378   1.00
C4       0.24990    0.02085    0.74998   1.00
C4       0.25010    -0.02085   0.75002   1.00
C3       0.23308    0.04292    0.71953   1.00
C3       0.22353    -0.04225   0.77312   1.00
C3       0.26690    0.04184    0.78112   1.00
C3a      0.27668    -0.04263   0.72642   1.00
C2       0.25099    0.10517    0.75113   1.00
C2       0.24882    -0.10517   0.74913   1.00
C3       0.23367    0.08434    0.72015   1.00
C3       0.22294    -0.08359   0.77262   1.00
C3       0.26758    0.08320    0.78158   1.00
C3       0.27553    -0.08415   0.72625   1.00
H1       0.21948    0.02808    0.69518   1.00
H1       0.20290    -0.02685   0.79146   1.00
H1       0.22055    0.10032    0.69627   1.00
H1       0.20205    -0.09895   0.79067   1.00
H1       0.28138    0.09821    0.80571   1.00
H1       0.29586    -0.10043   0.70838   1.00
C5       0.30719    -0.02239   0.70169   1.00
H1       0.28067    0.02599    0.80473   1.00
H2       0.32250    -0.04354   0.68245   1.00
H2       0.29266    -0.00103   0.68210   1.00
N1       0.33612    -0.00292   0.72634   1.00
C6       0.35920    -0.02012   0.75309   1.00
C6       0.34479    0.03540    0.72614   1.00
C6       0.38266    0.00757    0.77046   1.00
C6       0.37347    0.04289    0.75333   1.00
H3       0.35891    -0.05099   0.75984   1.00
H3       0.33080    0.05691    0.70769   1.00
H3       0.40409    0.00259    0.79307   1.00
H3       0.38622    0.07097    0.75994   1.00
C4       0.24998    0.24990    0.52085   1.00
C4       0.25002    0.25010    0.47915   1.00
C3       0.21953    0.23308    0.54292   1.00
C3       0.27312    0.22353    0.45775   1.00
C3       0.28112    0.26690    0.54184   1.00
C3a      0.22642    0.27668    0.45737   1.00
C2       0.25113    0.25099    0.60517   1.00
C2       0.24913    0.24882    0.39483   1.00
C3       0.22015    0.23367    0.58434   1.00
C3       0.27262    0.22294    0.41641   1.00
C3       0.28158    0.26758    0.58320   1.00
C3       0.22625    0.27553    0.41585   1.00
H1       0.19518    0.21948    0.52808   1.00
H1       0.29146    0.20290    0.47315   1.00
H1       0.19627    0.22055    0.60032   1.00
H1       0.29067    0.20205    0.40105   1.00
H1       0.30571    0.28138    0.59821   1.00
H1       0.20838    0.29586    0.39957   1.00
C5       0.20169    0.30719    0.47761   1.00
H1       0.30473    0.28067    0.52599   1.00
H2       0.18245    0.32250    0.45646   1.00
H2       0.18210    0.29266    0.49897   1.00
N1       0.22634    0.33612    0.49708   1.00
C6       0.25309    0.35920    0.47988   1.00
C6       0.22614    0.34479    0.53540   1.00
C6       0.27046    0.38266    0.50757   1.00
C6       0.25333    0.37347    0.54289   1.00
H3       0.25984    0.35891    0.44901   1.00
H3       0.20769    0.33080    0.55691   1.00
H3       0.29307    0.40409    0.50259   1.00
H3       0.25994    0.38622    0.57097   1.00
C4       0.24998    0.75010    0.47915   1.00
C4       0.25002    0.74990    0.52085   1.00
C3       0.21953    0.76692    0.45708   1.00
C3       0.27312    0.77647    0.54225   1.00
C3       0.28112    0.73310    0.45816   1.00
C3a      0.22642    0.72332    0.54263   1.00
C2       0.25113    0.74901    0.39483   1.00
C2       0.24913    0.75118    0.60517   1.00
C3       0.22015    0.76633    0.41566   1.00
C3       0.27262    0.77706    0.58359   1.00
C3       0.28158    0.73242    0.41680   1.00
C3       0.22625    0.72447    0.58415   1.00
H1       0.19518    0.78052    0.47192   1.00
H1       0.29146    0.79710    0.52685   1.00
H1       0.19627    0.77945    0.39968   1.00
H1       0.29067    0.79795    0.59895   1.00
H1       0.30571    0.71862    0.40179   1.00
H1       0.20838    0.70414    0.60043   1.00
C5       0.20169    0.69281    0.52239   1.00
H1       0.30473    0.71933    0.47401   1.00
H2       0.18245    0.67750    0.54354   1.00
H2       0.18210    0.70734    0.50103   1.00
N1       0.22634    0.66388    0.50292   1.00
C6       0.25309    0.64080    0.52012   1.00
C6       0.22614    0.65521    0.46460   1.00
C6       0.27046    0.61734    0.49243   1.00
C6       0.25333    0.62653    0.45711   1.00
H3       0.25984    0.64109    0.55099   1.00
H3       0.20769    0.66920    0.44309   1.00
H3       0.29307    0.59591    0.49741   1.00
H3       0.25994    0.61378    0.42903   1.00
C4       0.25010    0.97915    0.24998   1.00
C4       0.24990    1.02085    0.25002   1.00
C3       0.26692    0.95708    0.21953   1.00
C3       0.27647    1.04225    0.27312   1.00
C3       0.23310    0.95816    0.28112   1.00
C3a      0.22332    1.04263    0.22642   1.00
C2       0.24901    0.89483    0.25113   1.00
C2       0.25118    1.10517    0.24913   1.00
C3       0.26633    0.91566    0.22015   1.00
C3       0.27706    1.08359    0.27262   1.00
C3       0.23242    0.91680    0.28158   1.00
C3       0.22447    1.08415    0.22625   1.00
H1       0.28052    0.97192    0.19518   1.00
H1       0.29710    1.02685    0.29146   1.00
H1       0.27945    0.89968    0.19627   1.00
H1       0.29795    1.09895    0.29067   1.00
H1       0.21862    0.90179    0.30571   1.00
H1       0.20414    1.10043    0.20838   1.00
C5       0.19281    1.02239    0.20169   1.00
H1       0.21933    0.97401    0.30473   1.00
H2       0.17750    1.04354    0.18245   1.00
H2       0.20734    1.00103    0.18210   1.00
N1       0.16388    1.00292    0.22634   1.00
C6       0.14080    1.02012    0.25309   1.00
C6       0.15521    0.96460    0.22614   1.00
C6       0.11734    0.99243    0.27046   1.00
C6       0.12653    0.95711    0.25333   1.00
H3       0.14109    1.05099    0.25984   1.00
H3       0.16920    0.94309    0.20769   1.00
H3       0.09591    0.99741    0.29307   1.00
H3       0.11378    0.92903    0.25994   1.00
C4       0.02085    0.74998    0.24990   1.00
C4       -0.02085   0.75002    0.25010   1.00
C3       0.04292    0.71953    0.23308   1.00
C3       -0.04225   0.77312    0.22353   1.00
C3       0.04184    0.78112    0.26690   1.00
C3a      -0.04263   0.72642    0.27668   1.00
C2       0.10517    0.75113    0.25099   1.00
C2       -0.10517   0.74913    0.24882   1.00
C3       0.08434    0.72015    0.23367   1.00
C3       -0.08359   0.77262    0.22294   1.00
C3       0.08320    0.78158    0.26758   1.00
C3       -0.08415   0.72625    0.27553   1.00
H1       0.02808    0.69518    0.21948   1.00
H1       -0.02685   0.79146    0.20290   1.00
H1       0.10032    0.69627    0.22055   1.00
H1       -0.09895   0.79067    0.20205   1.00
H1       0.09821    0.80571    0.28138   1.00
H1       -0.10043   0.70838    0.29586   1.00
C5       -0.02239   0.70169    0.30719   1.00
H1       0.02599    0.80473    0.28067   1.00
H2       -0.04354   0.68245    0.32250   1.00
H2       -0.00103   0.68210    0.29266   1.00
N1       -0.00292   0.72634    0.33612   1.00
C6       -0.02012   0.75309    0.35920   1.00
C6       0.03540    0.72614    0.34479   1.00
C6       0.00757    0.77046    0.38266   1.00
C6       0.04289    0.75333    0.37347   1.00
H3       -0.05099   0.75984    0.35891   1.00
H3       0.05691    0.70769    0.33080   1.00
H3       0.00259    0.79307    0.40409   1.00
H3       0.07097    0.75994    0.38622   1.00
C4       0.47915    0.74998    0.25010   1.00
C4       0.52085    0.75002    0.24990   1.00
C3       0.45708    0.71953    0.26692   1.00
C3       0.54225    0.77312    0.27647   1.00
C3       0.45816    0.78112    0.23310   1.00
C3a      0.54263    0.72642    0.22332   1.00
C2       0.39483    0.75113    0.24901   1.00
C2       0.60517    0.74913    0.25118   1.00
C3       0.41566    0.72015    0.26633   1.00
C3       0.58359    0.77262    0.27706   1.00
C3       0.41680    0.78158    0.23242   1.00
C3       0.58415    0.72625    0.22447   1.00
H1       0.47192    0.69518    0.28052   1.00
H1       0.52685    0.79146    0.29710   1.00
H1       0.39968    0.69627    0.27945   1.00
H1       0.59895    0.79067    0.29795   1.00
H1       0.40179    0.80571    0.21862   1.00
H1       0.60043    0.70838    0.20414   1.00
C5       0.52239    0.70169    0.19281   1.00
H1       0.47401    0.80473    0.21933   1.00
H2       0.54354    0.68245    0.17750   1.00
H2       0.50103    0.68210    0.20734   1.00
N1       0.50292    0.72634    0.16388   1.00
C6       0.52012    0.75309    0.14080   1.00
C6       0.46460    0.72614    0.15521   1.00
C6       0.49243    0.77046    0.11734   1.00
C6       0.45711    0.75333    0.12653   1.00
H3       0.55099    0.75984    0.14109   1.00
H3       0.44309    0.70769    0.16920   1.00
H3       0.49741    0.79307    0.09591   1.00
H3       0.42903    0.75994    0.11378   1.00
C4       0.24990    0.52085    0.24998   1.00
C4       0.25010    0.47915    0.25002   1.00
C3       0.23308    0.54292    0.21953   1.00
C3       0.22353    0.45775    0.27312   1.00
C3       0.26690    0.54184    0.28112   1.00
C3a      0.27668    0.45737    0.22642   1.00
C2       0.25099    0.60517    0.25113   1.00
C2       0.24882    0.39483    0.24913   1.00
C3       0.23367    0.58434    0.22015   1.00
C3       0.22294    0.41641    0.27262   1.00
C3       0.26758    0.58320    0.28158   1.00
C3       0.27553    0.41585    0.22625   1.00
H1       0.21948    0.52808    0.19518   1.00
H1       0.20290    0.47315    0.29146   1.00
H1       0.22055    0.60032    0.19627   1.00
H1       0.20205    0.40105    0.29067   1.00
H1       0.28138    0.59821    0.30571   1.00
H1       0.29586    0.39957    0.20838   1.00
C5       0.30719    0.47761    0.20169   1.00
H1       0.28067    0.52599    0.30473   1.00
H2       0.32250    0.45646    0.18245   1.00
H2       0.29266    0.49897    0.18210   1.00
N1       0.33612    0.49708    0.22634   1.00
C6       0.35920    0.47988    0.25309   1.00
C6       0.34479    0.53540    0.22614   1.00
C6       0.38266    0.50757    0.27046   1.00
C6       0.37347    0.54289    0.25333   1.00
H3       0.35891    0.44901    0.25984   1.00
H3       0.33080    0.55691    0.20769   1.00
H3       0.40409    0.50259    0.29307   1.00
H3       0.38622    0.57097    0.25994   1.00
C4       0.24998    0.74990    0.02085   1.00
C4       0.25002    0.75010    -0.02085   1.00
C3       0.21953    0.73308    0.04292   1.00
C3       0.27312    0.72353    -0.04225   1.00
C3       0.28112    0.76690    0.04184   1.00
C3a      0.22642    0.77668    -0.04263   1.00
C2       0.25113    0.75099    0.10517   1.00
C2       0.24913    0.74882    -0.10517   1.00
C3       0.22015    0.73367    0.08434   1.00
C3       0.27262    0.72294    -0.08359   1.00
C3       0.28158    0.76758    0.08320   1.00
C3       0.22625    0.77553    -0.08415   1.00
H1       0.19518    0.71948    0.02808   1.00
H1       0.29146    0.70290    -0.02685   1.00
H1       0.19627    0.72055    0.10032   1.00
H1       0.29067    0.70205    -0.09895   1.00
H1       0.30571    0.78138    0.09821   1.00
H1       0.20838    0.79586    -0.10043   1.00
C5       0.20169    0.80719    -0.02239   1.00
H1       0.30473    0.78067    0.02599   1.00
H2       0.18245    0.82250    -0.04354   1.00
H2       0.18210    0.79266    -0.00103   1.00
N1       0.22634    0.83612    -0.00292   1.00
C6       0.25309    0.85920    -0.02012   1.00
C6       0.22614    0.84479    0.03540   1.00
C6       0.27046    0.88266    0.00757   1.00
C6       0.25333    0.87347    0.04289   1.00
H3       0.25984    0.85891    -0.05099   1.00
H3       0.20769    0.83080    0.05691   1.00
H3       0.29307    0.90409    0.00259   1.00
H3       0.25994    0.88622    0.07097   1.00
C4       0.74998    0.25010    0.47915   1.00
C4       0.75002    0.24990    0.52085   1.00
C3       0.71953    0.26692    0.45708   1.00
C3       0.77312    0.27647    0.54225   1.00
C3       0.78112    0.23310    0.45816   1.00
C3a      0.72642    0.22332    0.54263   1.00
C2       0.75113    0.24901    0.39483   1.00
C2       0.74913    0.25118    0.60517   1.00
C3       0.72015    0.26633    0.41566   1.00
C3       0.77262    0.27706    0.58359   1.00
C3       0.78158    0.23242    0.41680   1.00
C3       0.72625    0.22447    0.58415   1.00
H1       0.69518    0.28052    0.47192   1.00
H1       0.79146    0.29710    0.52685   1.00
H1       0.69627    0.27945    0.39968   1.00
H1       0.79067    0.29795    0.59895   1.00
H1       0.80571    0.21862    0.40179   1.00
H1       0.70838    0.20414    0.60043   1.00
C5       0.70169    0.19281    0.52239   1.00
H1       0.80473    0.21933    0.47401   1.00
H2       0.68245    0.17750    0.54354   1.00
H2       0.68210    0.20734    0.50103   1.00
N1       0.72634    0.16388    0.50292   1.00
C6       0.75309    0.14080    0.52012   1.00
C6       0.72614    0.15521    0.46460   1.00
C6       0.77046    0.11734    0.49243   1.00
C6       0.75333    0.12653    0.45711   1.00
H3       0.75984    0.14109    0.55099   1.00
H3       0.70769    0.16920    0.44309   1.00
H3       0.79307    0.09591    0.49741   1.00
H3       0.75994    0.11378    0.42903   1.00
C4       0.75010    0.47915    0.24998   1.00
C4       0.74990    0.52085    0.25002   1.00
C3       0.76692    0.45708    0.21953   1.00
C3       0.77647    0.54225    0.27312   1.00
C3       0.73310    0.45816    0.28112   1.00
C3a      0.72332    0.54263    0.22642   1.00
C2       0.74901    0.39483    0.25113   1.00
C2       0.75118    0.60517    0.24913   1.00
C3       0.76633    0.41566    0.22015   1.00
C3       0.77706    0.58359    0.27262   1.00
C3       0.73242    0.41680    0.28158   1.00
C3       0.72447    0.58415    0.22625   1.00
H1       0.78052    0.47192    0.19518   1.00
H1       0.79710    0.52685    0.29146   1.00
H1       0.77945    0.39968    0.19627   1.00
H1       0.79795    0.59895    0.29067   1.00
H1       0.71862    0.40179    0.30571   1.00
H1       0.70414    0.60043    0.20838   1.00
C5       0.69281    0.52239    0.20169   1.00
H1       0.71933    0.47401    0.30473   1.00
H2       0.67750    0.54354    0.18245   1.00
H2       0.70734    0.50103    0.18210   1.00
N1       0.66388    0.50292    0.22634   1.00
C6       0.64080    0.52012    0.25309   1.00
C6       0.65521    0.46460    0.22614   1.00
C6       0.61734    0.49243    0.27046   1.00
C6       0.62653    0.45711    0.25333   1.00
H3       0.64109    0.55099    0.25984   1.00
H3       0.66920    0.44309    0.20769   1.00
H3       0.59591    0.49741    0.29307   1.00
H3       0.61378    0.42903    0.25994   1.00
C4       0.52085    0.24998    0.24990   1.00
C4       0.47915    0.25002    0.25010   1.00
C3       0.54292    0.21953    0.23308   1.00
C3       0.45775    0.27312    0.22353   1.00
C3       0.54184    0.28112    0.26690   1.00
C3a      0.45737    0.22642    0.27668   1.00
C2       0.60517    0.25113    0.25099   1.00
C2       0.39483    0.24913    0.24882   1.00
C3       0.58434    0.22015    0.23367   1.00
C3       0.41641    0.27262    0.22294   1.00
C3       0.58320    0.28158    0.26758   1.00
C3       0.41585    0.22625    0.27553   1.00
H1       0.52808    0.19518    0.21948   1.00
H1       0.47315    0.29146    0.20290   1.00
H1       0.60032    0.19627    0.22055   1.00
H1       0.40105    0.29067    0.20205   1.00
H1       0.59821    0.30571    0.28138   1.00
H1       0.39957    0.20838    0.29586   1.00
C5       0.47761    0.20169    0.30719   1.00
H1       0.52599    0.30473    0.28067   1.00
H2       0.45646    0.18245    0.32250   1.00
H2       0.49897    0.18210    0.29266   1.00
N1       0.49708    0.22634    0.33612   1.00
C6       0.47988    0.25309    0.35920   1.00
C6       0.53540    0.22614    0.34479   1.00
C6       0.50757    0.27046    0.38266   1.00
C6       0.54289    0.25333    0.37347   1.00
H3       0.44901    0.25984    0.35891   1.00
H3       0.55691    0.20769    0.33080   1.00
H3       0.50259    0.29307    0.40409   1.00
H3       0.57097    0.25994    0.38622   1.00
C4       0.97915    0.24998    0.25010   1.00
C4       1.02085    0.25002    0.24990   1.00
C3       0.95708    0.21953    0.26692   1.00
C3       1.04225    0.27312    0.27647   1.00
C3       0.95816    0.28112    0.23310   1.00
C3a      1.04263    0.22642    0.22332   1.00
C2       0.89483    0.25113    0.24901   1.00
C2       1.10517    0.24913    0.25118   1.00
C3       0.91566    0.22015    0.26633   1.00
C3       1.08359    0.27262    0.27706   1.00
C3       0.91680    0.28158    0.23242   1.00
C3       1.08415    0.22625    0.22447   1.00
H1       0.97192    0.19518    0.28052   1.00
H1       1.02685    0.29146    0.29710   1.00
H1       0.89968    0.19627    0.27945   1.00
H1       1.09895    0.29067    0.29795   1.00
H1       0.90179    0.30571    0.21862   1.00
H1       1.10043    0.20838    0.20414   1.00
C5       1.02239    0.20169    0.19281   1.00
H1       0.97401    0.30473    0.21933   1.00
H2       1.04354    0.18245    0.17750   1.00
H2       1.00103    0.18210    0.20734   1.00
N1       1.00292    0.22634    0.16388   1.00
C6       1.02012    0.25309    0.14080   1.00
C6       0.96460    0.22614    0.15521   1.00
C6       0.99243    0.27046    0.11734   1.00
C6       0.95711    0.25333    0.12653   1.00
H3       1.05099    0.25984    0.14109   1.00
H3       0.94309    0.20769    0.16920   1.00
H3       0.99741    0.29307    0.09591   1.00
H3       0.92903    0.25994    0.11378   1.00
C4       0.74990    0.02085    0.24998   1.00
C4       0.75010    -0.02085   0.25002   1.00
C3       0.73308    0.04292    0.21953   1.00
C3       0.72353    -0.04225   0.27312   1.00
C3       0.76690    0.04184    0.28112   1.00
C3a      0.77668    -0.04263   0.22642   1.00
C2       0.75099    0.10517    0.25113   1.00
C2       0.74882    -0.10517   0.24913   1.00
C3       0.73367    0.08434    0.22015   1.00
C3       0.72294    -0.08359   0.27262   1.00
C3       0.76758    0.08320    0.28158   1.00
C3       0.77553    -0.08415   0.22625   1.00
H1       0.71948    0.02808    0.19518   1.00
H1       0.70290    -0.02685   0.29146   1.00
H1       0.72055    0.10032    0.19627   1.00
H1       0.70205    -0.09895   0.29067   1.00
H1       0.78138    0.09821    0.30571   1.00
H1       0.79586    -0.10043   0.20838   1.00
C5       0.80719    -0.02239   0.20169   1.00
H1       0.78067    0.02599    0.30473   1.00
H2       0.82250    -0.04354   0.18245   1.00
H2       0.79266    -0.00103   0.18210   1.00
N1       0.83612    -0.00292   0.22634   1.00
C6       0.85920    -0.02012   0.25309   1.00
C6       0.84479    0.03540    0.22614   1.00
C6       0.88266    0.00757    0.27046   1.00
C6       0.87347    0.04289    0.25333   1.00
H3       0.85891    -0.05099   0.25984   1.00
H3       0.83080    0.05691    0.20769   1.00
H3       0.90409    0.00259    0.29307   1.00
H3       0.88622    0.07097    0.25994   1.00
C4       0.74998    0.24990    0.02085   1.00
C4       0.75002    0.25010    -0.02085   1.00
C3       0.71953    0.23308    0.04292   1.00
C3       0.77312    0.22353    -0.04225   1.00
C3       0.78112    0.26690    0.04184   1.00
C3a      0.72642    0.27668    -0.04263   1.00
C2       0.75113    0.25099    0.10517   1.00
C2       0.74913    0.24882    -0.10517   1.00
C3       0.72015    0.23367    0.08434   1.00
C3       0.77262    0.22294    -0.08359   1.00
C3       0.78158    0.26758    0.08320   1.00
C3       0.72625    0.27553    -0.08415   1.00
H1       0.69518    0.21948    0.02808   1.00
H1       0.79146    0.20290    -0.02685   1.00
H1       0.69627    0.22055    0.10032   1.00
H1       0.79067    0.20205    -0.09895   1.00
H1       0.80571    0.28138    0.09821   1.00
H1       0.70838    0.29586    -0.10043   1.00
C5       0.70169    0.30719    -0.02239   1.00
H1       0.80473    0.28067    0.02599   1.00
H2       0.68245    0.32250    -0.04354   1.00
H2       0.68210    0.29266    -0.00103   1.00
N1       0.72634    0.33612    -0.00292   1.00
C6       0.75309    0.35920    -0.02012   1.00
C6       0.72614    0.34479    0.03540   1.00
C6       0.77046    0.38266    0.00757   1.00
C6       0.75333    0.37347    0.04289   1.00
H3       0.75984    0.35891    -0.05099   1.00
H3       0.70769    0.33080    0.05691   1.00
H3       0.79307    0.40409    0.00259   1.00
H3       0.75994    0.38622    0.07097   1.00
C4       0.99998    1.00010    1.22915   1.00
C4       1.00002    0.99990    1.27085   1.00
C3       0.96953    1.01692    1.20708   1.00
C3       1.02312    1.02647    1.29225   1.00
C3       1.03112    0.98310    1.20816   1.00
C3a      0.97642    0.97332    1.29263   1.00
C2       1.00113    0.99901    1.14483   1.00
C2       0.99913    1.00118    1.35517   1.00
C3       0.97015    1.01633    1.16566   1.00
C3       1.02262    1.02706    1.33359   1.00
C3       1.03158    0.98242    1.16680   1.00
C3       0.97625    0.97447    1.33415   1.00
H1       0.94518    1.03052    1.22192   1.00
H1       1.04146    1.04710    1.27685   1.00
H1       0.94627    1.02945    1.14968   1.00
H1       1.04067    1.04795    1.34895   1.00
H1       1.05571    0.96862    1.15179   1.00
H1       0.95838    0.95414    1.35043   1.00
C5       0.95169    0.94281    1.27239   1.00
H1       1.05473    0.96933    1.22401   1.00
H2       0.93245    0.92750    1.29354   1.00
H2       0.93210    0.95734    1.25103   1.00
N1       0.97634    0.91388    1.25292   1.00
C6       1.00309    0.89080    1.27012   1.00
C6       0.97614    0.90521    1.21460   1.00
C6       1.02046    0.86734    1.24243   1.00
C6       1.00333    0.87653    1.20711   1.00
H3       1.00984    0.89109    1.30099   1.00
H3       0.95769    0.91920    1.19309   1.00
H3       1.04307    0.84591    1.24741   1.00
H3       1.00994    0.86378    1.17903   1.00
C4       1.00010    1.22915    0.99998   1.00
C4       0.99990    1.27085    1.00002   1.00
C3       1.01692    1.20708    0.96953   1.00
C3       1.02647    1.29225    1.02312   1.00
C3       0.98310    1.20816    1.03112   1.00
C3a      0.97332    1.29263    0.97642   1.00
C2       0.99901    1.14483    1.00113   1.00
C2       1.00118    1.35517    0.99913   1.00
C3       1.01633    1.16566    0.97015   1.00
C3       1.02706    1.33359    1.02262   1.00
C3       0.98242    1.16680    1.03158   1.00
C3       0.97447    1.33415    0.97625   1.00
H1       1.03052    1.22192    0.94518   1.00
H1       1.04710    1.27685    1.04146   1.00
H1       1.02945    1.14968    0.94627   1.00
H1       1.04795    1.34895    1.04067   1.00
H1       0.96862    1.15179    1.05571   1.00
H1       0.95414    1.35043    0.95838   1.00
C5       0.94281    1.27239    0.95169   1.00
H1       0.96933    1.22401    1.05473   1.00
H2       0.92750    1.29354    0.93245   1.00
H2       0.95734    1.25103    0.93210   1.00
N1       0.91388    1.25292    0.97634   1.00
C6       0.89080    1.27012    1.00309   1.00
C6       0.90521    1.21460    0.97614   1.00
C6       0.86734    1.24243    1.02046   1.00
C6       0.87653    1.20711    1.00333   1.00
H3       0.89109    1.30099    1.00984   1.00
H3       0.91920    1.19309    0.95769   1.00
H3       0.84591    1.24741    1.04307   1.00
H3       0.86378    1.17903    1.00994   1.00
C4       0.77085    0.99998    0.99990   1.00
C4       0.72915    1.00002    1.00010   1.00
C3       0.79292    0.96953    0.98308   1.00
C3       0.70775    1.02312    0.97353   1.00
C3       0.79184    1.03112    1.01690   1.00
C3a      0.70737    0.97642    1.02668   1.00
C2       0.85517    1.00113    1.00099   1.00
C2       0.64483    0.99913    0.99882   1.00
C3       0.83434    0.97015    0.98367   1.00
C3       0.66641    1.02262    0.97294   1.00
C3       0.83320    1.03158    1.01758   1.00
C3       0.66585    0.97625    1.02553   1.00
H1       0.77808    0.94518    0.96948   1.00
H1       0.72315    1.04146    0.95290   1.00
H1       0.85032    0.94627    0.97055   1.00
H1       0.65105    1.04067    0.95205   1.00
H1       0.84821    1.05571    1.03138   1.00
H1       0.64957    0.95838    1.04586   1.00
C5       0.72761    0.95169    1.05719   1.00
H1       0.77599    1.05473    1.03067   1.00
H2       0.70646    0.93245    1.07250   1.00
H2       0.74897    0.93210    1.04266   1.00
N1       0.74708    0.97634    1.08612   1.00
C6       0.72988    1.00309    1.10920   1.00
C6       0.78540    0.97614    1.09479   1.00
C6       0.75757    1.02046    1.13266   1.00
C6       0.79289    1.00333    1.12347   1.00
H3       0.69901    1.00984    1.10891   1.00
H3       0.80691    0.95769    1.08080   1.00
H3       0.75259    1.04307    1.15409   1.00
H3       0.82097    1.00994    1.13622   1.00
C4       1.22915    0.99998    1.00010   1.00
C4       1.27085    1.00002    0.99990   1.00
C3       1.20708    0.96953    1.01692   1.00
C3       1.29225    1.02312    1.02647   1.00
C3       1.20816    1.03112    0.98310   1.00
C3a      1.29263    0.97642    0.97332   1.00
C2       1.14483    1.00113    0.99901   1.00
C2       1.35517    0.99913    1.00118   1.00
C3       1.16566    0.97015    1.01633   1.00
C3       1.33359    1.02262    1.02706   1.00
C3       1.16680    1.03158    0.98242   1.00
C3       1.33415    0.97625    0.97447   1.00
H1       1.22192    0.94518    1.03052   1.00
H1       1.27685    1.04146    1.04710   1.00
H1       1.14968    0.94627    1.02945   1.00
H1       1.34895    1.04067    1.04795   1.00
H1       1.15179    1.05571    0.96862   1.00
H1       1.35043    0.95838    0.95414   1.00
C5       1.27239    0.95169    0.94281   1.00
H1       1.22401    1.05473    0.96933   1.00
H2       1.29354    0.93245    0.92750   1.00
H2       1.25103    0.93210    0.95734   1.00
N1       1.25292    0.97634    0.91388   1.00
C6       1.27012    1.00309    0.89080   1.00
C6       1.21460    0.97614    0.90521   1.00
C6       1.24243    1.02046    0.86734   1.00
C6       1.20711    1.00333    0.87653   1.00
H3       1.30099    1.00984    0.89109   1.00
H3       1.19309    0.95769    0.91920   1.00
H3       1.24741    1.04307    0.84591   1.00
H3       1.17903    1.00994    0.86378   1.00
C4       0.99990    0.77085    0.99998   1.00
C4       1.00010    0.72915    1.00002   1.00
C3       0.98308    0.79292    0.96953   1.00
C3       0.97353    0.70775    1.02312   1.00
C3       1.01690    0.79184    1.03112   1.00
C3a      1.02668    0.70737    0.97642   1.00
C2       1.00099    0.85517    1.00113   1.00
C2       0.99882    0.64483    0.99913   1.00
C3       0.98367    0.83434    0.97015   1.00
C3       0.97294    0.66641    1.02262   1.00
C3       1.01758    0.83320    1.03158   1.00
C3       1.02553    0.66585    0.97625   1.00
H1       0.96948    0.77808    0.94518   1.00
H1       0.95290    0.72315    1.04146   1.00
H1       0.97055    0.85032    0.94627   1.00
H1       0.95205    0.65105    1.04067   1.00
H1       1.03138    0.84821    1.05571   1.00
H1       1.04586    0.64957    0.95838   1.00
C5       1.05719    0.72761    0.95169   1.00
H1       1.03067    0.77599    1.05473   1.00
H2       1.07250    0.70646    0.93245   1.00
H2       1.04266    0.74897    0.93210   1.00
N1       1.08612    0.74708    0.97634   1.00
C6       1.10920    0.72988    1.00309   1.00
C6       1.09479    0.78540    0.97614   1.00
C6       1.13266    0.75757    1.02046   1.00
C6       1.12347    0.79289    1.00333   1.00
H3       1.10891    0.69901    1.00984   1.00
H3       1.08080    0.80691    0.95769   1.00
H3       1.15409    0.75259    1.04307   1.00
H3       1.13622    0.82097    1.00994   1.00
C4       0.99998    0.99990    0.77085   1.00
C4       1.00002    1.00010    0.72915   1.00
C3       0.96953    0.98308    0.79292   1.00
C3       1.02312    0.97353    0.70775   1.00
C3       1.03112    1.01690    0.79184   1.00
C3a      0.97642    1.02668    0.70737   1.00
C2       1.00113    1.00099    0.85517   1.00
C2       0.99913    0.99882    0.64483   1.00
C3       0.97015    0.98367    0.83434   1.00
C3       1.02262    0.97294    0.66641   1.00
C3       1.03158    1.01758    0.83320   1.00
C3       0.97625    1.02553    0.66585   1.00
H1       0.94518    0.96948    0.77808   1.00
H1       1.04146    0.95290    0.72315   1.00
H1       0.94627    0.97055    0.85032   1.00
H1       1.04067    0.95205    0.65105   1.00
H1       1.05571    1.03138    0.84821   1.00
H1       0.95838    1.04586    0.64957   1.00
C5       0.95169    1.05719    0.72761   1.00
H1       1.05473    1.03067    0.77599   1.00
H2       0.93245    1.07250    0.70646   1.00
H2       0.93210    1.04266    0.74897   1.00
N1       0.97634    1.08612    0.74708   1.00
C6       1.00309    1.10920    0.72988   1.00
C6       0.97614    1.09479    0.78540   1.00
C6       1.02046    1.13266    0.75757   1.00
C6       1.00333    1.12347    0.79289   1.00
H3       1.00984    1.10891    0.69901   1.00
H3       0.95769    1.08080    0.80691   1.00
H3       1.04307    1.15409    0.75259   1.00
H3       1.00994    1.13622    0.82097   1.00
C4       0.49998    0.50010    1.22915   1.00
C4       0.50002    0.49990    1.27085   1.00
C3       0.46953    0.51692    1.20708   1.00
C3       0.52312    0.52647    1.29225   1.00
C3       0.53112    0.48310    1.20816   1.00
C3a      0.47642    0.47332    1.29263   1.00
C2       0.50113    0.49901    1.14483   1.00
C2       0.49913    0.50118    1.35517   1.00
C3       0.47015    0.51633    1.16566   1.00
C3       0.52262    0.52706    1.33359   1.00
C3       0.53158    0.48242    1.16680   1.00
C3       0.47625    0.47447    1.33415   1.00
H1       0.44518    0.53052    1.22192   1.00
H1       0.54146    0.54710    1.27685   1.00
H1       0.44627    0.52945    1.14968   1.00
H1       0.54067    0.54795    1.34895   1.00
H1       0.55571    0.46862    1.15179   1.00
H1       0.45838    0.45414    1.35043   1.00
C5       0.45169    0.44281    1.27239   1.00
H1       0.55473    0.46933    1.22401   1.00
H2       0.43245    0.42750    1.29354   1.00
H2       0.43210    0.45734    1.25103   1.00
N1       0.47634    0.41388    1.25292   1.00
C6       0.50309    0.39080    1.27012   1.00
C6       0.47614    0.40521    1.21460   1.00
C6       0.52046    0.36734    1.24243   1.00
C6       0.50333    0.37653    1.20711   1.00
H3       0.50984    0.39109    1.30099   1.00
H3       0.45769    0.41920    1.19309   1.00
H3       0.54307    0.34591    1.24741   1.00
H3       0.50994    0.36378    1.17903   1.00
C4       0.50010    0.72915    0.99998   1.00
C4       0.49990    0.77085    1.00002   1.00
C3       0.51692    0.70708    0.96953   1.00
C3       0.52647    0.79225    1.02312   1.00
C3       0.48310    0.70816    1.03112   1.00
C3a      0.47332    0.79263    0.97642   1.00
C2       0.49901    0.64483    1.00113   1.00
C2       0.50118    0.85517    0.99913   1.00
C3       0.51633    0.66566    0.97015   1.00
C3       0.52706    0.83359    1.02262   1.00
C3       0.48242    0.66680    1.03158   1.00
C3       0.47447    0.83415    0.97625   1.00
H1       0.53052    0.72192    0.94518   1.00
H1       0.54710    0.77685    1.04146   1.00
H1       0.52945    0.64968    0.94627   1.00
H1       0.54795    0.84895    1.04067   1.00
H1       0.46862    0.65179    1.05571   1.00
H1       0.45414    0.85043    0.95838   1.00
C5       0.44281    0.77239    0.95169   1.00
H1       0.46933    0.72401    1.05473   1.00
H2       0.42750    0.79354    0.93245   1.00
H2       0.45734    0.75103    0.93210   1.00
N1       0.41388    0.75292    0.97634   1.00
C6       0.39080    0.77012    1.00309   1.00
C6       0.40521    0.71460    0.97614   1.00
C6       0.36734    0.74243    1.02046   1.00
C6       0.37653    0.70711    1.00333   1.00
H3       0.39109    0.80099    1.00984   1.00
H3       0.41920    0.69309    0.95769   1.00
H3       0.34591    0.74741    1.04307   1.00
H3       0.36378    0.67903    1.00994   1.00
C4       0.27085    0.49998    0.99990   1.00
C4       0.22915    0.50002    1.00010   1.00
C3       0.29292    0.46953    0.98308   1.00
C3       0.20775    0.52312    0.97353   1.00
C3       0.29184    0.53112    1.01690   1.00
C3a      0.20737    0.47642    1.02668   1.00
C2       0.35517    0.50113    1.00099   1.00
C2       0.14483    0.49913    0.99882   1.00
C3       0.33434    0.47015    0.98367   1.00
C3       0.16641    0.52262    0.97294   1.00
C3       0.33320    0.53158    1.01758   1.00
C3       0.16585    0.47625    1.02553   1.00
H1       0.27808    0.44518    0.96948   1.00
H1       0.22315    0.54146    0.95290   1.00
H1       0.35032    0.44627    0.97055   1.00
H1       0.15105    0.54067    0.95205   1.00
H1       0.34821    0.55571    1.03138   1.00
H1       0.14957    0.45838    1.04586   1.00
C5       0.22761    0.45169    1.05719   1.00
H1       0.27599    0.55473    1.03067   1.00
H2       0.20646    0.43245    1.07250   1.00
H2       0.24897    0.43210    1.04266   1.00
N1       0.24708    0.47634    1.08612   1.00
C6       0.22988    0.50309    1.10920   1.00
C6       0.28540    0.47614    1.09479   1.00
C6       0.25757    0.52046    1.13266   1.00
C6       0.29289    0.50333    1.12347   1.00
H3       0.19901    0.50984    1.10891   1.00
H3       0.30691    0.45769    1.08080   1.00
H3       0.25259    0.54307    1.15409   1.00
H3       0.32097    0.50994    1.13622   1.00
C4       0.72915    0.49998    1.00010   1.00
C4       0.77085    0.50002    0.99990   1.00
C3       0.70708    0.46953    1.01692   1.00
C3       0.79225    0.52312    1.02647   1.00
C3       0.70816    0.53112    0.98310   1.00
C3a      0.79263    0.47642    0.97332   1.00
C2       0.64483    0.50113    0.99901   1.00
C2       0.85517    0.49913    1.00118   1.00
C3       0.66566    0.47015    1.01633   1.00
C3       0.83359    0.52262    1.02706   1.00
C3       0.66680    0.53158    0.98242   1.00
C3       0.83415    0.47625    0.97447   1.00
H1       0.72192    0.44518    1.03052   1.00
H1       0.77685    0.54146    1.04710   1.00
H1       0.64968    0.44627    1.02945   1.00
H1       0.84895    0.54067    1.04795   1.00
H1       0.65179    0.55571    0.96862   1.00
H1       0.85043    0.45838    0.95414   1.00
C5       0.77239    0.45169    0.94281   1.00
H1       0.72401    0.55473    0.96933   1.00
H2       0.79354    0.43245    0.92750   1.00
H2       0.75103    0.43210    0.95734   1.00
N1       0.75292    0.47634    0.91388   1.00
C6       0.77012    0.50309    0.89080   1.00
C6       0.71460    0.47614    0.90521   1.00
C6       0.74243    0.52046    0.86734   1.00
C6       0.70711    0.50333    0.87653   1.00
H3       0.80099    0.50984    0.89109   1.00
H3       0.69309    0.45769    0.91920   1.00
H3       0.74741    0.54307    0.84591   1.00
H3       0.67903    0.50994    0.86378   1.00
C4       0.49990    0.27085    0.99998   1.00
C4       0.50010    0.22915    1.00002   1.00
C3       0.48308    0.29292    0.96953   1.00
C3       0.47353    0.20775    1.02312   1.00
C3       0.51690    0.29184    1.03112   1.00
C3a      0.52668    0.20737    0.97642   1.00
C2       0.50099    0.35517    1.00113   1.00
C2       0.49882    0.14483    0.99913   1.00
C3       0.48367    0.33434    0.97015   1.00
C3       0.47294    0.16641    1.02262   1.00
C3       0.51758    0.33320    1.03158   1.00
C3       0.52553    0.16585    0.97625   1.00
H1       0.46948    0.27808    0.94518   1.00
H1       0.45290    0.22315    1.04146   1.00
H1       0.47055    0.35032    0.94627   1.00
H1       0.45205    0.15105    1.04067   1.00
H1       0.53138    0.34821    1.05571   1.00
H1       0.54586    0.14957    0.95838   1.00
C5       0.55719    0.22761    0.95169   1.00
H1       0.53067    0.27599    1.05473   1.00
H2       0.57250    0.20646    0.93245   1.00
H2       0.54266    0.24897    0.93210   1.00
N1       0.58612    0.24708    0.97634   1.00
C6       0.60920    0.22988    1.00309   1.00
C6       0.59479    0.28540    0.97614   1.00
C6       0.63266    0.25757    1.02046   1.00
C6       0.62347    0.29289    1.00333   1.00
H3       0.60891    0.19901    1.00984   1.00
H3       0.58080    0.30691    0.95769   1.00
H3       0.65409    0.25259    1.04307   1.00
H3       0.63622    0.32097    1.00994   1.00
C4       0.49998    0.49990    0.77085   1.00
C4       0.50002    0.50010    0.72915   1.00
C3       0.46953    0.48308    0.79292   1.00
C3       0.52312    0.47353    0.70775   1.00
C3       0.53112    0.51690    0.79184   1.00
C3a      0.47642    0.52668    0.70737   1.00
C2       0.50113    0.50099    0.85517   1.00
C2       0.49913    0.49882    0.64483   1.00
C3       0.47015    0.48367    0.83434   1.00
C3       0.52262    0.47294    0.66641   1.00
C3       0.53158    0.51758    0.83320   1.00
C3       0.47625    0.52553    0.66585   1.00
H1       0.44518    0.46948    0.77808   1.00
H1       0.54146    0.45290    0.72315   1.00
H1       0.44627    0.47055    0.85032   1.00
H1       0.54067    0.45205    0.65105   1.00
H1       0.55571    0.53138    0.84821   1.00
H1       0.45838    0.54586    0.64957   1.00
C5       0.45169    0.55719    0.72761   1.00
H1       0.55473    0.53067    0.77599   1.00
H2       0.43245    0.57250    0.70646   1.00
H2       0.43210    0.54266    0.74897   1.00
N1       0.47634    0.58612    0.74708   1.00
C6       0.50309    0.60920    0.72988   1.00
C6       0.47614    0.59479    0.78540   1.00
C6       0.52046    0.63266    0.75757   1.00
C6       0.50333    0.62347    0.79289   1.00
H3       0.50984    0.60891    0.69901   1.00
H3       0.45769    0.58080    0.80691   1.00
H3       0.54307    0.65409    0.75259   1.00
H3       0.50994    0.63622    0.82097   1.00
C4       0.49998    1.00010    0.72915   1.00
C4       0.50002    0.99990    0.77085   1.00
C3       0.46953    1.01692    0.70708   1.00
C3       0.52312    1.02647    0.79225   1.00
C3       0.53112    0.98310    0.70816   1.00
C3a      0.47642    0.97332    0.79263   1.00
C2       0.50113    0.99901    0.64483   1.00
C2       0.49913    1.00118    0.85517   1.00
C3       0.47015    1.01633    0.66566   1.00
C3       0.52262    1.02706    0.83359   1.00
C3       0.53158    0.98242    0.66680   1.00
C3       0.47625    0.97447    0.83415   1.00
H1       0.44518    1.03052    0.72192   1.00
H1       0.54146    1.04710    0.77685   1.00
H1       0.44627    1.02945    0.64968   1.00
H1       0.54067    1.04795    0.84895   1.00
H1       0.55571    0.96862    0.65179   1.00
H1       0.45838    0.95414    0.85043   1.00
C5       0.45169    0.94281    0.77239   1.00
H1       0.55473    0.96933    0.72401   1.00
H2       0.43245    0.92750    0.79354   1.00
H2       0.43210    0.95734    0.75103   1.00
N1       0.47634    0.91388    0.75292   1.00
C6       0.50309    0.89080    0.77012   1.00
C6       0.47614    0.90521    0.71460   1.00
C6       0.52046    0.86734    0.74243   1.00
C6       0.50333    0.87653    0.70711   1.00
H3       0.50984    0.89109    0.80099   1.00
H3       0.45769    0.91920    0.69309   1.00
H3       0.54307    0.84591    0.74741   1.00
H3       0.50994    0.86378    0.67903   1.00
C4       0.50010    1.22915    0.49998   1.00
C4       0.49990    1.27085    0.50002   1.00
C3       0.51692    1.20708    0.46953   1.00
C3       0.52647    1.29225    0.52312   1.00
C3       0.48310    1.20816    0.53112   1.00
C3a      0.47332    1.29263    0.47642   1.00
C2       0.49901    1.14483    0.50113   1.00
C2       0.50118    1.35517    0.49913   1.00
C3       0.51633    1.16566    0.47015   1.00
C3       0.52706    1.33359    0.52262   1.00
C3       0.48242    1.16680    0.53158   1.00
C3       0.47447    1.33415    0.47625   1.00
H1       0.53052    1.22192    0.44518   1.00
H1       0.54710    1.27685    0.54146   1.00
H1       0.52945    1.14968    0.44627   1.00
H1       0.54795    1.34895    0.54067   1.00
H1       0.46862    1.15179    0.55571   1.00
H1       0.45414    1.35043    0.45838   1.00
C5       0.44281    1.27239    0.45169   1.00
H1       0.46933    1.22401    0.55473   1.00
H2       0.42750    1.29354    0.43245   1.00
H2       0.45734    1.25103    0.43210   1.00
N1       0.41388    1.25292    0.47634   1.00
C6       0.39080    1.27012    0.50309   1.00
C6       0.40521    1.21460    0.47614   1.00
C6       0.36734    1.24243    0.52046   1.00
C6       0.37653    1.20711    0.50333   1.00
H3       0.39109    1.30099    0.50984   1.00
H3       0.41920    1.19309    0.45769   1.00
H3       0.34591    1.24741    0.54307   1.00
H3       0.36378    1.17903    0.50994   1.00
C4       0.27085    0.99998    0.49990   1.00
C4       0.22915    1.00002    0.50010   1.00
C3       0.29292    0.96953    0.48308   1.00
C3       0.20775    1.02312    0.47353   1.00
C3       0.29184    1.03112    0.51690   1.00
C3a      0.20737    0.97642    0.52668   1.00
C2       0.35517    1.00113    0.50099   1.00
C2       0.14483    0.99913    0.49882   1.00
C3       0.33434    0.97015    0.48367   1.00
C3       0.16641    1.02262    0.47294   1.00
C3       0.33320    1.03158    0.51758   1.00
C3       0.16585    0.97625    0.52553   1.00
H1       0.27808    0.94518    0.46948   1.00
H1       0.22315    1.04146    0.45290   1.00
H1       0.35032    0.94627    0.47055   1.00
H1       0.15105    1.04067    0.45205   1.00
H1       0.34821    1.05571    0.53138   1.00
H1       0.14957    0.95838    0.54586   1.00
C5       0.22761    0.95169    0.55719   1.00
H1       0.27599    1.05473    0.53067   1.00
H2       0.20646    0.93245    0.57250   1.00
H2       0.24897    0.93210    0.54266   1.00
N1       0.24708    0.97634    0.58612   1.00
C6       0.22988    1.00309    0.60920   1.00
C6       0.28540    0.97614    0.59479   1.00
C6       0.25757    1.02046    0.63266   1.00
C6       0.29289    1.00333    0.62347   1.00
H3       0.19901    1.00984    0.60891   1.00
H3       0.30691    0.95769    0.58080   1.00
H3       0.25259    1.04307    0.65409   1.00
H3       0.32097    1.00994    0.63622   1.00
C4       0.72915    0.99998    0.50010   1.00
C4       0.77085    1.00002    0.49990   1.00
C3       0.70708    0.96953    0.51692   1.00
C3       0.79225    1.02312    0.52647   1.00
C3       0.70816    1.03112    0.48310   1.00
C3a      0.79263    0.97642    0.47332   1.00
C2       0.64483    1.00113    0.49901   1.00
C2       0.85517    0.99913    0.50118   1.00
C3       0.66566    0.97015    0.51633   1.00
C3       0.83359    1.02262    0.52706   1.00
C3       0.66680    1.03158    0.48242   1.00
C3       0.83415    0.97625    0.47447   1.00
H1       0.72192    0.94518    0.53052   1.00
H1       0.77685    1.04146    0.54710   1.00
H1       0.64968    0.94627    0.52945   1.00
H1       0.84895    1.04067    0.54795   1.00
H1       0.65179    1.05571    0.46862   1.00
H1       0.85043    0.95838    0.45414   1.00
C5       0.77239    0.95169    0.44281   1.00
H1       0.72401    1.05473    0.46933   1.00
H2       0.79354    0.93245    0.42750   1.00
H2       0.75103    0.93210    0.45734   1.00
N1       0.75292    0.97634    0.41388   1.00
C6       0.77012    1.00309    0.39080   1.00
C6       0.71460    0.97614    0.40521   1.00
C6       0.74243    1.02046    0.36734   1.00
C6       0.70711    1.00333    0.37653   1.00
H3       0.80099    1.00984    0.39109   1.00
H3       0.69309    0.95769    0.41920   1.00
H3       0.74741    1.04307    0.34591   1.00
H3       0.67903    1.00994    0.36378   1.00
C4       0.49990    0.77085    0.49998   1.00
C4       0.50010    0.72915    0.50002   1.00
C3       0.48308    0.79292    0.46953   1.00
C3       0.47353    0.70775    0.52312   1.00
C3       0.51690    0.79184    0.53112   1.00
C3a      0.52668    0.70737    0.47642   1.00
C2       0.50099    0.85517    0.50113   1.00
C2       0.49882    0.64483    0.49913   1.00
C3       0.48367    0.83434    0.47015   1.00
C3       0.47294    0.66641    0.52262   1.00
C3       0.51758    0.83320    0.53158   1.00
C3       0.52553    0.66585    0.47625   1.00
H1       0.46948    0.77808    0.44518   1.00
H1       0.45290    0.72315    0.54146   1.00
H1       0.47055    0.85032    0.44627   1.00
H1       0.45205    0.65105    0.54067   1.00
H1       0.53138    0.84821    0.55571   1.00
H1       0.54586    0.64957    0.45838   1.00
C5       0.55719    0.72761    0.45169   1.00
H1       0.53067    0.77599    0.55473   1.00
H2       0.57250    0.70646    0.43245   1.00
H2       0.54266    0.74897    0.43210   1.00
N1       0.58612    0.74708    0.47634   1.00
C6       0.60920    0.72988    0.50309   1.00
C6       0.59479    0.78540    0.47614   1.00
C6       0.63266    0.75757    0.52046   1.00
C6       0.62347    0.79289    0.50333   1.00
H3       0.60891    0.69901    0.50984   1.00
H3       0.58080    0.80691    0.45769   1.00
H3       0.65409    0.75259    0.54307   1.00
H3       0.63622    0.82097    0.50994   1.00
C4       0.49998    0.99990    0.27085   1.00
C4       0.50002    1.00010    0.22915   1.00
C3       0.46953    0.98308    0.29292   1.00
C3       0.52312    0.97353    0.20775   1.00
C3       0.53112    1.01690    0.29184   1.00
C3a      0.47642    1.02668    0.20737   1.00
C2       0.50113    1.00099    0.35517   1.00
C2       0.49913    0.99882    0.14483   1.00
C3       0.47015    0.98367    0.33434   1.00
C3       0.52262    0.97294    0.16641   1.00
C3       0.53158    1.01758    0.33320   1.00
C3       0.47625    1.02553    0.16585   1.00
H1       0.44518    0.96948    0.27808   1.00
H1       0.54146    0.95290    0.22315   1.00
H1       0.44627    0.97055    0.35032   1.00
H1       0.54067    0.95205    0.15105   1.00
H1       0.55571    1.03138    0.34821   1.00
H1       0.45838    1.04586    0.14957   1.00
C5       0.45169    1.05719    0.22761   1.00
H1       0.55473    1.03067    0.27599   1.00
H2       0.43245    1.07250    0.20646   1.00
H2       0.43210    1.04266    0.24897   1.00
N1       0.47634    1.08612    0.24708   1.00
C6       0.50309    1.10920    0.22988   1.00
C6       0.47614    1.09479    0.28540   1.00
C6       0.52046    1.13266    0.25757   1.00
C6       0.50333    1.12347    0.29289   1.00
H3       0.50984    1.10891    0.19901   1.00
H3       0.45769    1.08080    0.30691   1.00
H3       0.54307    1.15409    0.25259   1.00
H3       0.50994    1.13622    0.32097   1.00
C4       0.99998    0.50010    0.72915   1.00
C4       1.00002    0.49990    0.77085   1.00
C3       0.96953    0.51692    0.70708   1.00
C3       1.02312    0.52647    0.79225   1.00
C3       1.03112    0.48310    0.70816   1.00
C3a      0.97642    0.47332    0.79263   1.00
C2       1.00113    0.49901    0.64483   1.00
C2       0.99913    0.50118    0.85517   1.00
C3       0.97015    0.51633    0.66566   1.00
C3       1.02262    0.52706    0.83359   1.00
C3       1.03158    0.48242    0.66680   1.00
C3       0.97625    0.47447    0.83415   1.00
H1       0.94518    0.53052    0.72192   1.00
H1       1.04146    0.54710    0.77685   1.00
H1       0.94627    0.52945    0.64968   1.00
H1       1.04067    0.54795    0.84895   1.00
H1       1.05571    0.46862    0.65179   1.00
H1       0.95838    0.45414    0.85043   1.00
C5       0.95169    0.44281    0.77239   1.00
H1       1.05473    0.46933    0.72401   1.00
H2       0.93245    0.42750    0.79354   1.00
H2       0.93210    0.45734    0.75103   1.00
N1       0.97634    0.41388    0.75292   1.00
C6       1.00309    0.39080    0.77012   1.00
C6       0.97614    0.40521    0.71460   1.00
C6       1.02046    0.36734    0.74243   1.00
C6       1.00333    0.37653    0.70711   1.00
H3       1.00984    0.39109    0.80099   1.00
H3       0.95769    0.41920    0.69309   1.00
H3       1.04307    0.34591    0.74741   1.00
H3       1.00994    0.36378    0.67903   1.00
C4       1.00010    0.72915    0.49998   1.00
C4       0.99990    0.77085    0.50002   1.00
C3       1.01692    0.70708    0.46953   1.00
C3       1.02647    0.79225    0.52312   1.00
C3       0.98310    0.70816    0.53112   1.00
C3a      0.97332    0.79263    0.47642   1.00
C2       0.99901    0.64483    0.50113   1.00
C2       1.00118    0.85517    0.49913   1.00
C3       1.01633    0.66566    0.47015   1.00
C3       1.02706    0.83359    0.52262   1.00
C3       0.98242    0.66680    0.53158   1.00
C3       0.97447    0.83415    0.47625   1.00
H1       1.03052    0.72192    0.44518   1.00
H1       1.04710    0.77685    0.54146   1.00
H1       1.02945    0.64968    0.44627   1.00
H1       1.04795    0.84895    0.54067   1.00
H1       0.96862    0.65179    0.55571   1.00
H1       0.95414    0.85043    0.45838   1.00
C5       0.94281    0.77239    0.45169   1.00
H1       0.96933    0.72401    0.55473   1.00
H2       0.92750    0.79354    0.43245   1.00
H2       0.95734    0.75103    0.43210   1.00
N1       0.91388    0.75292    0.47634   1.00
C6       0.89080    0.77012    0.50309   1.00
C6       0.90521    0.71460    0.47614   1.00
C6       0.86734    0.74243    0.52046   1.00
C6       0.87653    0.70711    0.50333   1.00
H3       0.89109    0.80099    0.50984   1.00
H3       0.91920    0.69309    0.45769   1.00
H3       0.84591    0.74741    0.54307   1.00
H3       0.86378    0.67903    0.50994   1.00
C4       0.77085    0.49998    0.49990   1.00
C4       0.72915    0.50002    0.50010   1.00
C3       0.79292    0.46953    0.48308   1.00
C3       0.70775    0.52312    0.47353   1.00
C3       0.79184    0.53112    0.51690   1.00
C3a      0.70737    0.47642    0.52668   1.00
C2       0.85517    0.50113    0.50099   1.00
C2       0.64483    0.49913    0.49882   1.00
C3       0.83434    0.47015    0.48367   1.00
C3       0.66641    0.52262    0.47294   1.00
C3       0.83320    0.53158    0.51758   1.00
C3       0.66585    0.47625    0.52553   1.00
H1       0.77808    0.44518    0.46948   1.00
H1       0.72315    0.54146    0.45290   1.00
H1       0.85032    0.44627    0.47055   1.00
H1       0.65105    0.54067    0.45205   1.00
H1       0.84821    0.55571    0.53138   1.00
H1       0.64957    0.45838    0.54586   1.00
C5       0.72761    0.45169    0.55719   1.00
H1       0.77599    0.55473    0.53067   1.00
H2       0.70646    0.43245    0.57250   1.00
H2       0.74897    0.43210    0.54266   1.00
N1       0.74708    0.47634    0.58612   1.00
C6       0.72988    0.50309    0.60920   1.00
C6       0.78540    0.47614    0.59479   1.00
C6       0.75757    0.52046    0.63266   1.00
C6       0.79289    0.50333    0.62347   1.00
H3       0.69901    0.50984    0.60891   1.00
H3       0.80691    0.45769    0.58080   1.00
H3       0.75259    0.54307    0.65409   1.00
H3       0.82097    0.50994    0.63622   1.00
C4       1.22915    0.49998    0.50010   1.00
C4       1.27085    0.50002    0.49990   1.00
C3       1.20708    0.46953    0.51692   1.00
C3       1.29225    0.52312    0.52647   1.00
C3       1.20816    0.53112    0.48310   1.00
C3a      1.29263    0.47642    0.47332   1.00
C2       1.14483    0.50113    0.49901   1.00
C2       1.35517    0.49913    0.50118   1.00
C3       1.16566    0.47015    0.51633   1.00
C3       1.33359    0.52262    0.52706   1.00
C3       1.16680    0.53158    0.48242   1.00
C3       1.33415    0.47625    0.47447   1.00
H1       1.22192    0.44518    0.53052   1.00
H1       1.27685    0.54146    0.54710   1.00
H1       1.14968    0.44627    0.52945   1.00
H1       1.34895    0.54067    0.54795   1.00
H1       1.15179    0.55571    0.46862   1.00
H1       1.35043    0.45838    0.45414   1.00
C5       1.27239    0.45169    0.44281   1.00
H1       1.22401    0.55473    0.46933   1.00
H2       1.29354    0.43245    0.42750   1.00
H2       1.25103    0.43210    0.45734   1.00
N1       1.25292    0.47634    0.41388   1.00
C6       1.27012    0.50309    0.39080   1.00
C6       1.21460    0.47614    0.40521   1.00
C6       1.24243    0.52046    0.36734   1.00
C6       1.20711    0.50333    0.37653   1.00
H3       1.30099    0.50984    0.39109   1.00
H3       1.19309    0.45769    0.41920   1.00
H3       1.24741    0.54307    0.34591   1.00
H3       1.17903    0.50994    0.36378   1.00
C4       0.99990    0.27085    0.49998   1.00
C4       1.00010    0.22915    0.50002   1.00
C3       0.98308    0.29292    0.46953   1.00
C3       0.97353    0.20775    0.52312   1.00
C3       1.01690    0.29184    0.53112   1.00
C3a      1.02668    0.20737    0.47642   1.00
C2       1.00099    0.35517    0.50113   1.00
C2       0.99882    0.14483    0.49913   1.00
C3       0.98367    0.33434    0.47015   1.00
C3       0.97294    0.16641    0.52262   1.00
C3       1.01758    0.33320    0.53158   1.00
C3       1.02553    0.16585    0.47625   1.00
H1       0.96948    0.27808    0.44518   1.00
H1       0.95290    0.22315    0.54146   1.00
H1       0.97055    0.35032    0.44627   1.00
H1       0.95205    0.15105    0.54067   1.00
H1       1.03138    0.34821    0.55571   1.00
H1       1.04586    0.14957    0.45838   1.00
C5       1.05719    0.22761    0.45169   1.00
H1       1.03067    0.27599    0.55473   1.00
H2       1.07250    0.20646    0.43245   1.00
H2       1.04266    0.24897    0.43210   1.00
N1       1.08612    0.24708    0.47634   1.00
C6       1.10920    0.22988    0.50309   1.00
C6       1.09479    0.28540    0.47614   1.00
C6       1.13266    0.25757    0.52046   1.00
C6       1.12347    0.29289    0.50333   1.00
H3       1.10891    0.19901    0.50984   1.00
H3       1.08080    0.30691    0.45769   1.00
H3       1.15409    0.25259    0.54307   1.00
H3       1.13622    0.32097    0.50994   1.00
C4       0.99998    0.49990    0.27085   1.00
C4       1.00002    0.50010    0.22915   1.00
C3       0.96953    0.48308    0.29292   1.00
C3       1.02312    0.47353    0.20775   1.00
C3       1.03112    0.51690    0.29184   1.00
C3a      0.97642    0.52668    0.20737   1.00
C2       1.00113    0.50099    0.35517   1.00
C2       0.99913    0.49882    0.14483   1.00
C3       0.97015    0.48367    0.33434   1.00
C3       1.02262    0.47294    0.16641   1.00
C3       1.03158    0.51758    0.33320   1.00
C3       0.97625    0.52553    0.16585   1.00
H1       0.94518    0.46948    0.27808   1.00
H1       1.04146    0.45290    0.22315   1.00
H1       0.94627    0.47055    0.35032   1.00
H1       1.04067    0.45205    0.15105   1.00
H1       1.05571    0.53138    0.34821   1.00
H1       0.95838    0.54586    0.14957   1.00
C5       0.95169    0.55719    0.22761   1.00
H1       1.05473    0.53067    0.27599   1.00
H2       0.93245    0.57250    0.20646   1.00
H2       0.93210    0.54266    0.24897   1.00
N1       0.97634    0.58612    0.24708   1.00
C6       1.00309    0.60920    0.22988   1.00
C6       0.97614    0.59479    0.28540   1.00
C6       1.02046    0.63266    0.25757   1.00
C6       1.00333    0.62347    0.29289   1.00
H3       1.00984    0.60891    0.19901   1.00
H3       0.95769    0.58080    0.30691   1.00
H3       1.04307    0.65409    0.25259   1.00
H3       1.00994    0.63622    0.32097   1.00
