data_IRMOF10_SG202_interpen_Ligand3lp_label_e.

_audit_creation_method             'generated by an auxiliary program of Tobunporous'

_symmetry_space_group_name_H-M     'P 1'
_symmetry_Int_Tables_number        1
_symmetry_cell_setting             triclinic

_cell_length_a                    34.2800
_cell_length_b                    34.2800
_cell_length_c                    34.2800
_cell_angle_alpha                 90.0000
_cell_angle_beta                  90.0000
_cell_angle_gamma                 90.0000

loop_
_atom_site_label
_atom_site_fract_x
_atom_site_fract_y
_atom_site_fract_z
_atom_site_occupancy
O1       0.75000    0.75000    0.75000   1.00
Zn1      0.71720    0.78280    0.78280   1.00
Zn1      0.78280    0.71720    0.78280   1.00
Zn1      0.78280    0.78280    0.71720   1.00
Zn1      0.71720    0.71720    0.71720   1.00
O2       0.72650    0.77350    0.83820   1.00
O2       0.72650    0.83820    0.77350   1.00
O2       0.66180    0.77350    0.77350   1.00
O2       0.77350    0.72650    0.83820   1.00
O2       0.83820    0.72650    0.77350   1.00
O2       0.77350    0.66180    0.77350   1.00
O2       0.77350    0.83820    0.72650   1.00
O2       0.83820    0.77350    0.72650   1.00
O2       0.77350    0.77350    0.66180   1.00
O2       0.66180    0.72650    0.72650   1.00
O2       0.72650    0.66180    0.72650   1.00
O2       0.72650    0.72650    0.66180   1.00
C1       0.75000    0.75000    0.85520   1.00
C1       0.75000    0.85520    0.75000   1.00
C1       0.64480    0.75000    0.75000   1.00
C1       0.85520    0.75000    0.75000   1.00
C1       0.75000    0.64480    0.75000   1.00
C1       0.75000    0.75000    0.64480   1.00
O1       0.25000    0.25000    0.75000   1.00
Zn1      0.21720    0.28280    0.78280   1.00
Zn1      0.28280    0.21720    0.78280   1.00
Zn1      0.28280    0.28280    0.71720   1.00
Zn1      0.21720    0.21720    0.71720   1.00
O2       0.22650    0.27350    0.83820   1.00
O2       0.22650    0.33820    0.77350   1.00
O2       0.16180    0.27350    0.77350   1.00
O2       0.27350    0.22650    0.83820   1.00
O2       0.33820    0.22650    0.77350   1.00
O2       0.27350    0.16180    0.77350   1.00
O2       0.27350    0.33820    0.72650   1.00
O2       0.33820    0.27350    0.72650   1.00
O2       0.27350    0.27350    0.66180   1.00
O2       0.16180    0.22650    0.72650   1.00
O2       0.22650    0.16180    0.72650   1.00
O2       0.22650    0.22650    0.66180   1.00
C1       0.25000    0.25000    0.85520   1.00
C1       0.25000    0.35520    0.75000   1.00
C1       0.14480    0.25000    0.75000   1.00
C1       0.35520    0.25000    0.75000   1.00
C1       0.25000    0.14480    0.75000   1.00
C1       0.25000    0.25000    0.64480   1.00
O1       0.25000    0.75000    0.25000   1.00
Zn1      0.21720    0.78280    0.28280   1.00
Zn1      0.28280    0.71720    0.28280   1.00
Zn1      0.28280    0.78280    0.21720   1.00
Zn1      0.21720    0.71720    0.21720   1.00
O2       0.22650    0.77350    0.33820   1.00
O2       0.22650    0.83820    0.27350   1.00
O2       0.16180    0.77350    0.27350   1.00
O2       0.27350    0.72650    0.33820   1.00
O2       0.33820    0.72650    0.27350   1.00
O2       0.27350    0.66180    0.27350   1.00
O2       0.27350    0.83820    0.22650   1.00
O2       0.33820    0.77350    0.22650   1.00
O2       0.27350    0.77350    0.16180   1.00
O2       0.16180    0.72650    0.22650   1.00
O2       0.22650    0.66180    0.22650   1.00
O2       0.22650    0.72650    0.16180   1.00
C1       0.25000    0.75000    0.35520   1.00
C1       0.25000    0.85520    0.25000   1.00
C1       0.14480    0.75000    0.25000   1.00
C1       0.35520    0.75000    0.25000   1.00
C1       0.25000    0.64480    0.25000   1.00
C1       0.25000    0.75000    0.14480   1.00
O1       0.75000    0.25000    0.25000   1.00
Zn1      0.71720    0.28280    0.28280   1.00
Zn1      0.78280    0.21720    0.28280   1.00
Zn1      0.78280    0.28280    0.21720   1.00
Zn1      0.71720    0.21720    0.21720   1.00
O2       0.72650    0.27350    0.33820   1.00
O2       0.72650    0.33820    0.27350   1.00
O2       0.66180    0.27350    0.27350   1.00
O2       0.77350    0.22650    0.33820   1.00
O2       0.83820    0.22650    0.27350   1.00
O2       0.77350    0.16180    0.27350   1.00
O2       0.77350    0.33820    0.22650   1.00
O2       0.83820    0.27350    0.22650   1.00
O2       0.77350    0.27350    0.16180   1.00
O2       0.66180    0.22650    0.22650   1.00
O2       0.72650    0.16180    0.22650   1.00
O2       0.72650    0.22650    0.16180   1.00
C1       0.75000    0.25000    0.35520   1.00
C1       0.75000    0.35520    0.25000   1.00
C1       0.64480    0.25000    0.25000   1.00
C1       0.85520    0.25000    0.25000   1.00
C1       0.75000    0.14480    0.25000   1.00
C1       0.75000    0.25000    0.14480   1.00
O1       0.25000    0.25000    0.25000   1.00
Zn1      0.28280    0.21720    0.21720   1.00
Zn1      0.21720    0.28280    0.21720   1.00
Zn1      0.21720    0.21720    0.28280   1.00
Zn1      0.28280    0.28280    0.28280   1.00
O2       0.27350    0.22650    0.16180   1.00
O2       0.27350    0.16180    0.22650   1.00
O2       0.33820    0.22650    0.22650   1.00
O2       0.22650    0.27350    0.16180   1.00
O2       0.16180    0.27350    0.22650   1.00
O2       0.22650    0.33820    0.22650   1.00
O2       0.22650    0.16180    0.27350   1.00
O2       0.16180    0.22650    0.27350   1.00
O2       0.22650    0.22650    0.33820   1.00
O2       0.33820    0.27350    0.27350   1.00
O2       0.27350    0.33820    0.27350   1.00
O2       0.27350    0.27350    0.33820   1.00
C1       0.25000    0.25000    0.14480   1.00
C1       0.25000    0.14480    0.25000   1.00
C1       0.35520    0.25000    0.25000   1.00
C1       0.14480    0.25000    0.25000   1.00
C1       0.25000    0.35520    0.25000   1.00
C1       0.25000    0.25000    0.35520   1.00
O1       0.75000    0.75000    0.25000   1.00
Zn1      0.78280    0.71720    0.21720   1.00
Zn1      0.71720    0.78280    0.21720   1.00
Zn1      0.71720    0.71720    0.28280   1.00
Zn1      0.78280    0.78280    0.28280   1.00
O2       0.77350    0.72650    0.16180   1.00
O2       0.77350    0.66180    0.22650   1.00
O2       0.83820    0.72650    0.22650   1.00
O2       0.72650    0.77350    0.16180   1.00
O2       0.66180    0.77350    0.22650   1.00
O2       0.72650    0.83820    0.22650   1.00
O2       0.72650    0.66180    0.27350   1.00
O2       0.66180    0.72650    0.27350   1.00
O2       0.72650    0.72650    0.33820   1.00
O2       0.83820    0.77350    0.27350   1.00
O2       0.77350    0.83820    0.27350   1.00
O2       0.77350    0.77350    0.33820   1.00
C1       0.75000    0.75000    0.14480   1.00
C1       0.75000    0.64480    0.25000   1.00
C1       0.85520    0.75000    0.25000   1.00
C1       0.64480    0.75000    0.25000   1.00
C1       0.75000    0.85520    0.25000   1.00
C1       0.75000    0.75000    0.35520   1.00
O1       0.75000    0.25000    0.75000   1.00
Zn1      0.78280    0.21720    0.71720   1.00
Zn1      0.71720    0.28280    0.71720   1.00
Zn1      0.71720    0.21720    0.78280   1.00
Zn1      0.78280    0.28280    0.78280   1.00
O2       0.77350    0.22650    0.66180   1.00
O2       0.77350    0.16180    0.72650   1.00
O2       0.83820    0.22650    0.72650   1.00
O2       0.72650    0.27350    0.66180   1.00
O2       0.66180    0.27350    0.72650   1.00
O2       0.72650    0.33820    0.72650   1.00
O2       0.72650    0.16180    0.77350   1.00
O2       0.66180    0.22650    0.77350   1.00
O2       0.72650    0.22650    0.83820   1.00
O2       0.83820    0.27350    0.77350   1.00
O2       0.77350    0.33820    0.77350   1.00
O2       0.77350    0.27350    0.83820   1.00
C1       0.75000    0.25000    0.64480   1.00
C1       0.75000    0.14480    0.75000   1.00
C1       0.85520    0.25000    0.75000   1.00
C1       0.64480    0.25000    0.75000   1.00
C1       0.75000    0.35520    0.75000   1.00
C1       0.75000    0.25000    0.85520   1.00
O1       0.25000    0.75000    0.75000   1.00
Zn1      0.28280    0.71720    0.71720   1.00
Zn1      0.21720    0.78280    0.71720   1.00
Zn1      0.21720    0.71720    0.78280   1.00
Zn1      0.28280    0.78280    0.78280   1.00
O2       0.27350    0.72650    0.66180   1.00
O2       0.27350    0.66180    0.72650   1.00
O2       0.33820    0.72650    0.72650   1.00
O2       0.22650    0.77350    0.66180   1.00
O2       0.16180    0.77350    0.72650   1.00
O2       0.22650    0.83820    0.72650   1.00
O2       0.22650    0.66180    0.77350   1.00
O2       0.16180    0.72650    0.77350   1.00
O2       0.22650    0.72650    0.83820   1.00
O2       0.33820    0.77350    0.77350   1.00
O2       0.27350    0.83820    0.77350   1.00
O2       0.27350    0.77350    0.83820   1.00
C1       0.25000    0.75000    0.64480   1.00
C1       0.25000    0.64480    0.75000   1.00
C1       0.35520    0.75000    0.75000   1.00
C1       0.14480    0.75000    0.75000   1.00
C1       0.25000    0.85520    0.75000   1.00
C1       0.25000    0.75000    0.85520   1.00
O1       1.00000    1.00000    1.00000   1.00
Zn1      0.96720    1.03280    1.03280   1.00
Zn1      1.03280    0.96720    1.03280   1.00
Zn1      1.03280    1.03280    0.96720   1.00
Zn1      0.96720    0.96720    0.96720   1.00
O2       0.97650    1.02350    1.08820   1.00
O2       0.97650    1.08820    1.02350   1.00
O2       0.91180    1.02350    1.02350   1.00
O2       1.02350    0.97650    1.08820   1.00
O2       1.08820    0.97650    1.02350   1.00
O2       1.02350    0.91180    1.02350   1.00
O2       1.02350    1.08820    0.97650   1.00
O2       1.08820    1.02350    0.97650   1.00
O2       1.02350    1.02350    0.91180   1.00
O2       0.91180    0.97650    0.97650   1.00
O2       0.97650    0.91180    0.97650   1.00
O2       0.97650    0.97650    0.91180   1.00
C1       1.00000    1.00000    1.10520   1.00
C1       1.00000    1.10520    1.00000   1.00
C1       0.89480    1.00000    1.00000   1.00
C1       1.10520    1.00000    1.00000   1.00
C1       1.00000    0.89480    1.00000   1.00
C1       1.00000    1.00000    0.89480   1.00
O1       0.50000    0.50000    1.00000   1.00
Zn1      0.46720    0.53280    1.03280   1.00
Zn1      0.53280    0.46720    1.03280   1.00
Zn1      0.53280    0.53280    0.96720   1.00
Zn1      0.46720    0.46720    0.96720   1.00
O2       0.47650    0.52350    1.08820   1.00
O2       0.47650    0.58820    1.02350   1.00
O2       0.41180    0.52350    1.02350   1.00
O2       0.52350    0.47650    1.08820   1.00
O2       0.58820    0.47650    1.02350   1.00
O2       0.52350    0.41180    1.02350   1.00
O2       0.52350    0.58820    0.97650   1.00
O2       0.58820    0.52350    0.97650   1.00
O2       0.52350    0.52350    0.91180   1.00
O2       0.41180    0.47650    0.97650   1.00
O2       0.47650    0.41180    0.97650   1.00
O2       0.47650    0.47650    0.91180   1.00
C1       0.50000    0.50000    1.10520   1.00
C1       0.50000    0.60520    1.00000   1.00
C1       0.39480    0.50000    1.00000   1.00
C1       0.60520    0.50000    1.00000   1.00
C1       0.50000    0.39480    1.00000   1.00
C1       0.50000    0.50000    0.89480   1.00
O1       0.50000    1.00000    0.50000   1.00
Zn1      0.46720    1.03280    0.53280   1.00
Zn1      0.53280    0.96720    0.53280   1.00
Zn1      0.53280    1.03280    0.46720   1.00
Zn1      0.46720    0.96720    0.46720   1.00
O2       0.47650    1.02350    0.58820   1.00
O2       0.47650    1.08820    0.52350   1.00
O2       0.41180    1.02350    0.52350   1.00
O2       0.52350    0.97650    0.58820   1.00
O2       0.58820    0.97650    0.52350   1.00
O2       0.52350    0.91180    0.52350   1.00
O2       0.52350    1.08820    0.47650   1.00
O2       0.58820    1.02350    0.47650   1.00
O2       0.52350    1.02350    0.41180   1.00
O2       0.41180    0.97650    0.47650   1.00
O2       0.47650    0.91180    0.47650   1.00
O2       0.47650    0.97650    0.41180   1.00
C1       0.50000    1.00000    0.60520   1.00
C1       0.50000    1.10520    0.50000   1.00
C1       0.39480    1.00000    0.50000   1.00
C1       0.60520    1.00000    0.50000   1.00
C1       0.50000    0.89480    0.50000   1.00
C1       0.50000    1.00000    0.39480   1.00
O1       1.00000    0.50000    0.50000   1.00
Zn1      0.96720    0.53280    0.53280   1.00
Zn1      1.03280    0.46720    0.53280   1.00
Zn1      1.03280    0.53280    0.46720   1.00
Zn1      0.96720    0.46720    0.46720   1.00
O2       0.97650    0.52350    0.58820   1.00
O2       0.97650    0.58820    0.52350   1.00
O2       0.91180    0.52350    0.52350   1.00
O2       1.02350    0.47650    0.58820   1.00
O2       1.08820    0.47650    0.52350   1.00
O2       1.02350    0.41180    0.52350   1.00
O2       1.02350    0.58820    0.47650   1.00
O2       1.08820    0.52350    0.47650   1.00
O2       1.02350    0.52350    0.41180   1.00
O2       0.91180    0.47650    0.47650   1.00
O2       0.97650    0.41180    0.47650   1.00
O2       0.97650    0.47650    0.41180   1.00
C1       1.00000    0.50000    0.60520   1.00
C1       1.00000    0.60520    0.50000   1.00
C1       0.89480    0.50000    0.50000   1.00
C1       1.10520    0.50000    0.50000   1.00
C1       1.00000    0.39480    0.50000   1.00
C1       1.00000    0.50000    0.39480   1.00
O1       0.50000    0.50000    0.50000   1.00
Zn1      0.53280    0.46720    0.46720   1.00
Zn1      0.46720    0.53280    0.46720   1.00
Zn1      0.46720    0.46720    0.53280   1.00
Zn1      0.53280    0.53280    0.53280   1.00
O2       0.52350    0.47650    0.41180   1.00
O2       0.52350    0.41180    0.47650   1.00
O2       0.58820    0.47650    0.47650   1.00
O2       0.47650    0.52350    0.41180   1.00
O2       0.41180    0.52350    0.47650   1.00
O2       0.47650    0.58820    0.47650   1.00
O2       0.47650    0.41180    0.52350   1.00
O2       0.41180    0.47650    0.52350   1.00
O2       0.47650    0.47650    0.58820   1.00
O2       0.58820    0.52350    0.52350   1.00
O2       0.52350    0.58820    0.52350   1.00
O2       0.52350    0.52350    0.58820   1.00
C1       0.50000    0.50000    0.39480   1.00
C1       0.50000    0.39480    0.50000   1.00
C1       0.60520    0.50000    0.50000   1.00
C1       0.39480    0.50000    0.50000   1.00
C1       0.50000    0.60520    0.50000   1.00
C1       0.50000    0.50000    0.60520   1.00
O1       1.00000    1.00000    0.50000   1.00
Zn1      1.03280    0.96720    0.46720   1.00
Zn1      0.96720    1.03280    0.46720   1.00
Zn1      0.96720    0.96720    0.53280   1.00
Zn1      1.03280    1.03280    0.53280   1.00
O2       1.02350    0.97650    0.41180   1.00
O2       1.02350    0.91180    0.47650   1.00
O2       1.08820    0.97650    0.47650   1.00
O2       0.97650    1.02350    0.41180   1.00
O2       0.91180    1.02350    0.47650   1.00
O2       0.97650    1.08820    0.47650   1.00
O2       0.97650    0.91180    0.52350   1.00
O2       0.91180    0.97650    0.52350   1.00
O2       0.97650    0.97650    0.58820   1.00
O2       1.08820    1.02350    0.52350   1.00
O2       1.02350    1.08820    0.52350   1.00
O2       1.02350    1.02350    0.58820   1.00
C1       1.00000    1.00000    0.39480   1.00
C1       1.00000    0.89480    0.50000   1.00
C1       1.10520    1.00000    0.50000   1.00
C1       0.89480    1.00000    0.50000   1.00
C1       1.00000    1.10520    0.50000   1.00
C1       1.00000    1.00000    0.60520   1.00
O1       1.00000    0.50000    1.00000   1.00
Zn1      1.03280    0.46720    0.96720   1.00
Zn1      0.96720    0.53280    0.96720   1.00
Zn1      0.96720    0.46720    1.03280   1.00
Zn1      1.03280    0.53280    1.03280   1.00
O2       1.02350    0.47650    0.91180   1.00
O2       1.02350    0.41180    0.97650   1.00
O2       1.08820    0.47650    0.97650   1.00
O2       0.97650    0.52350    0.91180   1.00
O2       0.91180    0.52350    0.97650   1.00
O2       0.97650    0.58820    0.97650   1.00
O2       0.97650    0.41180    1.02350   1.00
O2       0.91180    0.47650    1.02350   1.00
O2       0.97650    0.47650    1.08820   1.00
O2       1.08820    0.52350    1.02350   1.00
O2       1.02350    0.58820    1.02350   1.00
O2       1.02350    0.52350    1.08820   1.00
C1       1.00000    0.50000    0.89480   1.00
C1       1.00000    0.39480    1.00000   1.00
C1       1.10520    0.50000    1.00000   1.00
C1       0.89480    0.50000    1.00000   1.00
C1       1.00000    0.60520    1.00000   1.00
C1       1.00000    0.50000    1.10520   1.00
O1       0.50000    1.00000    1.00000   1.00
Zn1      0.53280    0.96720    0.96720   1.00
Zn1      0.46720    1.03280    0.96720   1.00
Zn1      0.46720    0.96720    1.03280   1.00
Zn1      0.53280    1.03280    1.03280   1.00
O2       0.52350    0.97650    0.91180   1.00
O2       0.52350    0.91180    0.97650   1.00
O2       0.58820    0.97650    0.97650   1.00
O2       0.47650    1.02350    0.91180   1.00
O2       0.41180    1.02350    0.97650   1.00
O2       0.47650    1.08820    0.97650   1.00
O2       0.47650    0.91180    1.02350   1.00
O2       0.41180    0.97650    1.02350   1.00
O2       0.47650    0.97650    1.08820   1.00
O2       0.58820    1.02350    1.02350   1.00
O2       0.52350    1.08820    1.02350   1.00
O2       0.52350    1.02350    1.08820   1.00
C1       0.50000    1.00000    0.89480   1.00
C1       0.50000    0.89480    1.00000   1.00
C1       0.60520    1.00000    1.00000   1.00
C1       0.39480    1.00000    1.00000   1.00
C1       0.50000    1.10520    1.00000   1.00
C1       0.50000    1.00000    1.10520   1.00
C4       0.75281    0.75117    1.02084   1.00
C4       0.75255    0.75049    0.97912   1.00
C3       0.78690    0.74529    1.04364   1.00
C3       0.78553    0.74037    0.95616   1.00
C3       0.71704    0.75747    1.04123   1.00
C3       0.71756    0.76053    0.95886   1.00
C2       0.75057    0.75105    1.10512   1.00
C2       0.74943    0.74895    0.89488   1.00
C3       0.78581    0.74500    1.08462   1.00
C3       0.78414    0.73996    0.91519   1.00
C3       0.71667    0.75781    1.08258   1.00
C3       0.71631    0.75832    0.91762   1.00
H1       0.81355    0.74117    1.03115   1.00
H1       0.81146    0.73275    0.96852   1.00
C5       0.68189    0.76357    1.02020   1.00
C5       0.68392    0.77238    0.97980   1.00
H1       0.81134    0.74031    1.09955   1.00
H1       0.80899    0.73274    0.90010   1.00
H1       0.69100    0.76344    1.09680   1.00
H1       0.69038    0.76317    0.90368   1.00
O3       0.64668    0.76312    1.03961   1.00
O3       0.65261    0.78948    0.96099   1.00
Si1      0.62170    0.72264    1.04247   1.00
Si1      0.65353    0.83638    0.95279   1.00
C6       0.58587    0.73957    1.07538   1.00
C6       0.60159    0.71365    0.99598   1.00
C6       0.64855    0.68351    1.06253   1.00
C6       0.69551    0.86283    0.96693   1.00
C6       0.64777    0.83942    0.90198   1.00
C6       0.61164    0.85649    0.97477   1.00
C6       0.60145    0.76224    1.11194   1.00
H2       0.57045    0.76131    1.05791   1.00
C6       0.55344    0.71149    1.09147   1.00
H2       0.60033    0.74295    0.98358   1.00
C6       0.62572    0.68867    0.96634   1.00
C6       0.55899    0.69739    0.99336   1.00
H2       0.66171    0.69692    1.08831   1.00
C6       0.62487    0.64746    1.07772   1.00
C6       0.68295    0.66499    1.03849   1.00
C6       0.70827    0.86106    1.01071   1.00
C6       0.73382    0.85921    0.94225   1.00
H2       0.68641    0.89297    0.96212   1.00
H2       0.67530    0.82827    0.89051   1.00
C6       0.61539    0.81279    0.88378   1.00
C6       0.64214    0.88095    0.88393   1.00
H2       0.58839    0.85078    0.95375   1.00
C6       0.59769    0.83685    1.01336   1.00
C6       0.61089    0.90154    0.98244   1.00
H2       0.61981    0.78688    1.10346   1.00
H2       0.61863    0.74320    1.13090   1.00
H2       0.57743    0.77425    1.12917   1.00
H2       0.52631    0.72765    1.09608   1.00
H2       0.54697    0.68748    1.07178   1.00
H2       0.56130    0.69883    1.11964   1.00
H2       0.61436    0.69221    0.93672   1.00
H2       0.65620    0.69750    0.96532   1.00
H2       0.62428    0.65767    0.97352   1.00
H2       0.53837    0.71626    1.00862   1.00
H2       0.54896    0.69596    0.96308   1.00
H2       0.55713    0.66798    1.00550   1.00
H2       0.60545    0.63612    1.05514   1.00
H2       0.64395    0.62363    1.08708   1.00
H2       0.60771    0.65488    1.10332   1.00
H2       0.67288    0.64188    1.01902   1.00
H2       0.69860    0.68589    1.02068   1.00
H2       0.70433    0.65192    1.05828   1.00
H2       0.72561    0.83515    1.01688   1.00
H2       0.72632    0.88632    1.01809   1.00
H2       0.68342    0.86133    1.03048   1.00
H2       0.75511    0.88123    0.95125   1.00
H2       0.74778    0.83092    0.94574   1.00
H2       0.72862    0.86401    0.91122   1.00
H2       0.61845    0.81165    0.85202   1.00
H2       0.61768    0.78279    0.89435   1.00
H2       0.58611    0.82343    0.89035   1.00
H2       0.66433    0.90136    0.89416   1.00
H2       0.64463    0.87969    0.85212   1.00
H2       0.61340    0.89286    0.89085   1.00
H2       0.61933    0.83927    1.03656   1.00
H2       0.57037    0.84952    1.02381   1.00
H2       0.59227    0.80605    1.00834   1.00
H2       0.58154    0.91119    0.99044   1.00
H2       0.63053    0.90965    1.00622   1.00
H2       0.61923    0.91806    0.95657   1.00
C4       0.75117    1.02084    0.75281   1.00
C4       0.75049    0.97912    0.75255   1.00
C3       0.74529    1.04364    0.78690   1.00
C3       0.74037    0.95616    0.78553   1.00
C3       0.75747    1.04123    0.71704   1.00
C3       0.76053    0.95886    0.71756   1.00
C2       0.75105    1.10512    0.75057   1.00
C2       0.74895    0.89488    0.74943   1.00
C3       0.74500    1.08462    0.78581   1.00
C3       0.73996    0.91519    0.78414   1.00
C3       0.75781    1.08258    0.71667   1.00
C3       0.75832    0.91762    0.71631   1.00
H1       0.74117    1.03115    0.81355   1.00
H1       0.73275    0.96852    0.81146   1.00
C5       0.76357    1.02020    0.68189   1.00
C5       0.77238    0.97980    0.68392   1.00
H1       0.74031    1.09955    0.81134   1.00
H1       0.73274    0.90010    0.80899   1.00
H1       0.76344    1.09680    0.69100   1.00
H1       0.76317    0.90368    0.69038   1.00
O3       0.76312    1.03961    0.64668   1.00
O3       0.78948    0.96099    0.65261   1.00
Si1      0.72264    1.04247    0.62170   1.00
Si1      0.83638    0.95279    0.65353   1.00
C6       0.73957    1.07538    0.58587   1.00
C6       0.71365    0.99598    0.60159   1.00
C6       0.68351    1.06253    0.64855   1.00
C6       0.86283    0.96693    0.69551   1.00
C6       0.83942    0.90198    0.64777   1.00
C6       0.85649    0.97477    0.61164   1.00
C6       0.76224    1.11194    0.60145   1.00
H2       0.76131    1.05791    0.57045   1.00
C6       0.71149    1.09147    0.55344   1.00
H2       0.74295    0.98358    0.60033   1.00
C6       0.68867    0.96634    0.62572   1.00
C6       0.69739    0.99336    0.55899   1.00
H2       0.69692    1.08831    0.66171   1.00
C6       0.64746    1.07772    0.62487   1.00
C6       0.66499    1.03849    0.68295   1.00
C6       0.86106    1.01071    0.70827   1.00
C6       0.85921    0.94225    0.73382   1.00
H2       0.89297    0.96212    0.68641   1.00
H2       0.82827    0.89051    0.67530   1.00
C6       0.81279    0.88378    0.61539   1.00
C6       0.88095    0.88393    0.64214   1.00
H2       0.85078    0.95375    0.58839   1.00
C6       0.83685    1.01336    0.59769   1.00
C6       0.90154    0.98244    0.61089   1.00
H2       0.78688    1.10346    0.61981   1.00
H2       0.74320    1.13090    0.61863   1.00
H2       0.77425    1.12917    0.57743   1.00
H2       0.72765    1.09608    0.52631   1.00
H2       0.68748    1.07178    0.54697   1.00
H2       0.69883    1.11964    0.56130   1.00
H2       0.69221    0.93672    0.61436   1.00
H2       0.69750    0.96532    0.65620   1.00
H2       0.65767    0.97352    0.62428   1.00
H2       0.71626    1.00862    0.53837   1.00
H2       0.69596    0.96308    0.54896   1.00
H2       0.66798    1.00550    0.55713   1.00
H2       0.63612    1.05514    0.60545   1.00
H2       0.62363    1.08708    0.64395   1.00
H2       0.65488    1.10332    0.60771   1.00
H2       0.64188    1.01902    0.67288   1.00
H2       0.68589    1.02068    0.69860   1.00
H2       0.65192    1.05828    0.70433   1.00
H2       0.83515    1.01688    0.72561   1.00
H2       0.88632    1.01809    0.72632   1.00
H2       0.86133    1.03048    0.68342   1.00
H2       0.88123    0.95125    0.75511   1.00
H2       0.83092    0.94574    0.74778   1.00
H2       0.86401    0.91122    0.72862   1.00
H2       0.81165    0.85202    0.61845   1.00
H2       0.78279    0.89435    0.61768   1.00
H2       0.82343    0.89035    0.58611   1.00
H2       0.90136    0.89416    0.66433   1.00
H2       0.87969    0.85212    0.64463   1.00
H2       0.89286    0.89085    0.61340   1.00
H2       0.83927    1.03656    0.61933   1.00
H2       0.84952    1.02381    0.57037   1.00
H2       0.80605    1.00834    0.59227   1.00
H2       0.91119    0.99044    0.58154   1.00
H2       0.90965    1.00622    0.63053   1.00
H2       0.91806    0.95657    0.61923   1.00
C4       0.47916    0.75281    0.74883   1.00
C4       0.52088    0.75255    0.74951   1.00
C3       0.45636    0.78690    0.75471   1.00
C3       0.54384    0.78553    0.75963   1.00
C3       0.45877    0.71704    0.74253   1.00
C3       0.54114    0.71756    0.73947   1.00
C2       0.39488    0.75057    0.74895   1.00
C2       0.60512    0.74943    0.75105   1.00
C3       0.41538    0.78581    0.75500   1.00
C3       0.58481    0.78414    0.76004   1.00
C3       0.41742    0.71667    0.74219   1.00
C3       0.58238    0.71631    0.74168   1.00
H1       0.46885    0.81355    0.75883   1.00
H1       0.53148    0.81146    0.76725   1.00
C5       0.47980    0.68189    0.73643   1.00
C5       0.52020    0.68392    0.72762   1.00
H1       0.40045    0.81134    0.75969   1.00
H1       0.59990    0.80899    0.76726   1.00
H1       0.40320    0.69100    0.73656   1.00
H1       0.59632    0.69038    0.73683   1.00
O3       0.46039    0.64668    0.73688   1.00
O3       0.53901    0.65261    0.71052   1.00
Si1      0.45753    0.62170    0.77736   1.00
Si1      0.54721    0.65353    0.66362   1.00
C6       0.42462    0.58587    0.76043   1.00
C6       0.50402    0.60159    0.78635   1.00
C6       0.43747    0.64855    0.81649   1.00
C6       0.53307    0.69551    0.63717   1.00
C6       0.59802    0.64777    0.66058   1.00
C6       0.52523    0.61164    0.64351   1.00
C6       0.38806    0.60145    0.73776   1.00
H2       0.44209    0.57045    0.73869   1.00
C6       0.40853    0.55344    0.78851   1.00
H2       0.51642    0.60033    0.75705   1.00
C6       0.53366    0.62572    0.81133   1.00
C6       0.50664    0.55899    0.80261   1.00
H2       0.41169    0.66171    0.80308   1.00
C6       0.42228    0.62487    0.85254   1.00
C6       0.46151    0.68295    0.83501   1.00
C6       0.48929    0.70827    0.63894   1.00
C6       0.55775    0.73382    0.64079   1.00
H2       0.53788    0.68641    0.60703   1.00
H2       0.60949    0.67530    0.67173   1.00
C6       0.61622    0.61539    0.68721   1.00
C6       0.61607    0.64214    0.61905   1.00
H2       0.54625    0.58839    0.64922   1.00
C6       0.48664    0.59769    0.66315   1.00
C6       0.51756    0.61089    0.59846   1.00
H2       0.39654    0.61981    0.71312   1.00
H2       0.36910    0.61863    0.75680   1.00
H2       0.37083    0.57743    0.72575   1.00
H2       0.40392    0.52631    0.77235   1.00
H2       0.42822    0.54697    0.81252   1.00
H2       0.38036    0.56130    0.80117   1.00
H2       0.56328    0.61436    0.80779   1.00
H2       0.53468    0.65620    0.80250   1.00
H2       0.52648    0.62428    0.84233   1.00
H2       0.49138    0.53837    0.78374   1.00
H2       0.53692    0.54896    0.80404   1.00
H2       0.49450    0.55713    0.83202   1.00
H2       0.44486    0.60545    0.86388   1.00
H2       0.41292    0.64395    0.87637   1.00
H2       0.39668    0.60771    0.84512   1.00
H2       0.48098    0.67288    0.85812   1.00
H2       0.47932    0.69860    0.81411   1.00
H2       0.44172    0.70433    0.84808   1.00
H2       0.48312    0.72561    0.66485   1.00
H2       0.48191    0.72632    0.61368   1.00
H2       0.46952    0.68342    0.63867   1.00
H2       0.54875    0.75511    0.61877   1.00
H2       0.55426    0.74778    0.66908   1.00
H2       0.58878    0.72862    0.63599   1.00
H2       0.64798    0.61845    0.68835   1.00
H2       0.60565    0.61768    0.71721   1.00
H2       0.60965    0.58611    0.67657   1.00
H2       0.60584    0.66433    0.59864   1.00
H2       0.64788    0.64463    0.62031   1.00
H2       0.60915    0.61340    0.60714   1.00
H2       0.46344    0.61933    0.66073   1.00
H2       0.47619    0.57037    0.65048   1.00
H2       0.49166    0.59227    0.69395   1.00
H2       0.50956    0.58154    0.58881   1.00
H2       0.49378    0.63053    0.59035   1.00
H2       0.54343    0.61923    0.58194   1.00
C4       1.02084    0.75281    0.75117   1.00
C4       0.97912    0.75255    0.75049   1.00
C3       1.04364    0.78690    0.74529   1.00
C3       0.95616    0.78553    0.74037   1.00
C3       1.04123    0.71704    0.75747   1.00
C3       0.95886    0.71756    0.76053   1.00
C2       1.10512    0.75057    0.75105   1.00
C2       0.89488    0.74943    0.74895   1.00
C3       1.08462    0.78581    0.74500   1.00
C3       0.91519    0.78414    0.73996   1.00
C3       1.08258    0.71667    0.75781   1.00
C3       0.91762    0.71631    0.75832   1.00
H1       1.03115    0.81355    0.74117   1.00
H1       0.96852    0.81146    0.73275   1.00
C5       1.02020    0.68189    0.76357   1.00
C5       0.97980    0.68392    0.77238   1.00
H1       1.09955    0.81134    0.74031   1.00
H1       0.90010    0.80899    0.73274   1.00
H1       1.09680    0.69100    0.76344   1.00
H1       0.90368    0.69038    0.76317   1.00
O3       1.03961    0.64668    0.76312   1.00
O3       0.96099    0.65261    0.78948   1.00
Si1      1.04247    0.62170    0.72264   1.00
Si1      0.95279    0.65353    0.83638   1.00
C6       1.07538    0.58587    0.73957   1.00
C6       0.99598    0.60159    0.71365   1.00
C6       1.06253    0.64855    0.68351   1.00
C6       0.96693    0.69551    0.86283   1.00
C6       0.90198    0.64777    0.83942   1.00
C6       0.97477    0.61164    0.85649   1.00
C6       1.11194    0.60145    0.76224   1.00
H2       1.05791    0.57045    0.76131   1.00
C6       1.09147    0.55344    0.71149   1.00
H2       0.98358    0.60033    0.74295   1.00
C6       0.96634    0.62572    0.68867   1.00
C6       0.99336    0.55899    0.69739   1.00
H2       1.08831    0.66171    0.69692   1.00
C6       1.07772    0.62487    0.64746   1.00
C6       1.03849    0.68295    0.66499   1.00
C6       1.01071    0.70827    0.86106   1.00
C6       0.94225    0.73382    0.85921   1.00
H2       0.96212    0.68641    0.89297   1.00
H2       0.89051    0.67530    0.82827   1.00
C6       0.88378    0.61539    0.81279   1.00
C6       0.88393    0.64214    0.88095   1.00
H2       0.95375    0.58839    0.85078   1.00
C6       1.01336    0.59769    0.83685   1.00
C6       0.98244    0.61089    0.90154   1.00
H2       1.10346    0.61981    0.78688   1.00
H2       1.13090    0.61863    0.74320   1.00
H2       1.12917    0.57743    0.77425   1.00
H2       1.09608    0.52631    0.72765   1.00
H2       1.07178    0.54697    0.68748   1.00
H2       1.11964    0.56130    0.69883   1.00
H2       0.93672    0.61436    0.69221   1.00
H2       0.96532    0.65620    0.69750   1.00
H2       0.97352    0.62428    0.65767   1.00
H2       1.00862    0.53837    0.71626   1.00
H2       0.96308    0.54896    0.69596   1.00
H2       1.00550    0.55713    0.66798   1.00
H2       1.05514    0.60545    0.63612   1.00
H2       1.08708    0.64395    0.62363   1.00
H2       1.10332    0.60771    0.65488   1.00
H2       1.01902    0.67288    0.64188   1.00
H2       1.02068    0.69860    0.68589   1.00
H2       1.05828    0.70433    0.65192   1.00
H2       1.01688    0.72561    0.83515   1.00
H2       1.01809    0.72632    0.88632   1.00
H2       1.03048    0.68342    0.86133   1.00
H2       0.95125    0.75511    0.88123   1.00
H2       0.94574    0.74778    0.83092   1.00
H2       0.91122    0.72862    0.86401   1.00
H2       0.85202    0.61845    0.81165   1.00
H2       0.89435    0.61768    0.78279   1.00
H2       0.89035    0.58611    0.82343   1.00
H2       0.89416    0.66433    0.90136   1.00
H2       0.85212    0.64463    0.87969   1.00
H2       0.89085    0.61340    0.89286   1.00
H2       1.03656    0.61933    0.83927   1.00
H2       1.02381    0.57037    0.84952   1.00
H2       1.00834    0.59227    0.80605   1.00
H2       0.99044    0.58154    0.91119   1.00
H2       1.00622    0.63053    0.90965   1.00
H2       0.95657    0.61923    0.91806   1.00
C4       0.74883    0.47916    0.75281   1.00
C4       0.74951    0.52088    0.75255   1.00
C3       0.75471    0.45636    0.78690   1.00
C3       0.75963    0.54384    0.78553   1.00
C3       0.74253    0.45877    0.71704   1.00
C3       0.73947    0.54114    0.71756   1.00
C2       0.74895    0.39488    0.75057   1.00
C2       0.75105    0.60512    0.74943   1.00
C3       0.75500    0.41538    0.78581   1.00
C3       0.76004    0.58481    0.78414   1.00
C3       0.74219    0.41742    0.71667   1.00
C3       0.74168    0.58238    0.71631   1.00
H1       0.75883    0.46885    0.81355   1.00
H1       0.76725    0.53148    0.81146   1.00
C5       0.73643    0.47980    0.68189   1.00
C5       0.72762    0.52020    0.68392   1.00
H1       0.75969    0.40045    0.81134   1.00
H1       0.76726    0.59990    0.80899   1.00
H1       0.73656    0.40320    0.69100   1.00
H1       0.73683    0.59632    0.69038   1.00
O3       0.73688    0.46039    0.64668   1.00
O3       0.71052    0.53901    0.65261   1.00
Si1      0.77736    0.45753    0.62170   1.00
Si1      0.66362    0.54721    0.65353   1.00
C6       0.76043    0.42462    0.58587   1.00
C6       0.78635    0.50402    0.60159   1.00
C6       0.81649    0.43747    0.64855   1.00
C6       0.63717    0.53307    0.69551   1.00
C6       0.66058    0.59802    0.64777   1.00
C6       0.64351    0.52523    0.61164   1.00
C6       0.73776    0.38806    0.60145   1.00
H2       0.73869    0.44209    0.57045   1.00
C6       0.78851    0.40853    0.55344   1.00
H2       0.75705    0.51642    0.60033   1.00
C6       0.81133    0.53366    0.62572   1.00
C6       0.80261    0.50664    0.55899   1.00
H2       0.80308    0.41169    0.66171   1.00
C6       0.85254    0.42228    0.62487   1.00
C6       0.83501    0.46151    0.68295   1.00
C6       0.63894    0.48929    0.70827   1.00
C6       0.64079    0.55775    0.73382   1.00
H2       0.60703    0.53788    0.68641   1.00
H2       0.67173    0.60949    0.67530   1.00
C6       0.68721    0.61622    0.61539   1.00
C6       0.61905    0.61607    0.64214   1.00
H2       0.64922    0.54625    0.58839   1.00
C6       0.66315    0.48664    0.59769   1.00
C6       0.59846    0.51756    0.61089   1.00
H2       0.71312    0.39654    0.61981   1.00
H2       0.75680    0.36910    0.61863   1.00
H2       0.72575    0.37083    0.57743   1.00
H2       0.77235    0.40392    0.52631   1.00
H2       0.81252    0.42822    0.54697   1.00
H2       0.80117    0.38036    0.56130   1.00
H2       0.80779    0.56328    0.61436   1.00
H2       0.80250    0.53468    0.65620   1.00
H2       0.84233    0.52648    0.62428   1.00
H2       0.78374    0.49138    0.53837   1.00
H2       0.80404    0.53692    0.54896   1.00
H2       0.83202    0.49450    0.55713   1.00
H2       0.86388    0.44486    0.60545   1.00
H2       0.87637    0.41292    0.64395   1.00
H2       0.84512    0.39668    0.60771   1.00
H2       0.85812    0.48098    0.67288   1.00
H2       0.81411    0.47932    0.69860   1.00
H2       0.84808    0.44172    0.70433   1.00
H2       0.66485    0.48312    0.72561   1.00
H2       0.61368    0.48191    0.72632   1.00
H2       0.63867    0.46952    0.68342   1.00
H2       0.61877    0.54875    0.75511   1.00
H2       0.66908    0.55426    0.74778   1.00
H2       0.63599    0.58878    0.72862   1.00
H2       0.68835    0.64798    0.61845   1.00
H2       0.71721    0.60565    0.61768   1.00
H2       0.67657    0.60965    0.58611   1.00
H2       0.59864    0.60584    0.66433   1.00
H2       0.62031    0.64788    0.64463   1.00
H2       0.60714    0.60915    0.61340   1.00
H2       0.66073    0.46344    0.61933   1.00
H2       0.65048    0.47619    0.57037   1.00
H2       0.69395    0.49166    0.59227   1.00
H2       0.58881    0.50956    0.58154   1.00
H2       0.59035    0.49378    0.63053   1.00
H2       0.58194    0.54343    0.61923   1.00
C4       0.75281    0.74883    0.47916   1.00
C4       0.75255    0.74951    0.52088   1.00
C3       0.78690    0.75471    0.45636   1.00
C3       0.78553    0.75963    0.54384   1.00
C3       0.71704    0.74253    0.45877   1.00
C3       0.71756    0.73947    0.54114   1.00
C2       0.75057    0.74895    0.39488   1.00
C2       0.74943    0.75105    0.60512   1.00
C3       0.78581    0.75500    0.41538   1.00
C3       0.78414    0.76004    0.58481   1.00
C3       0.71667    0.74219    0.41742   1.00
C3       0.71631    0.74168    0.58238   1.00
H1       0.81355    0.75883    0.46885   1.00
H1       0.81146    0.76725    0.53148   1.00
C5       0.68189    0.73643    0.47980   1.00
C5       0.68392    0.72762    0.52020   1.00
H1       0.81134    0.75969    0.40045   1.00
H1       0.80899    0.76726    0.59990   1.00
H1       0.69100    0.73656    0.40320   1.00
H1       0.69038    0.73683    0.59632   1.00
O3       0.64668    0.73688    0.46039   1.00
O3       0.65261    0.71052    0.53901   1.00
Si1      0.62170    0.77736    0.45753   1.00
Si1      0.65353    0.66362    0.54721   1.00
C6       0.58587    0.76043    0.42462   1.00
C6       0.60159    0.78635    0.50402   1.00
C6       0.64855    0.81649    0.43747   1.00
C6       0.69551    0.63717    0.53307   1.00
C6       0.64777    0.66058    0.59802   1.00
C6       0.61164    0.64351    0.52523   1.00
C6       0.60145    0.73776    0.38806   1.00
H2       0.57045    0.73869    0.44209   1.00
C6       0.55344    0.78851    0.40853   1.00
H2       0.60033    0.75705    0.51642   1.00
C6       0.62572    0.81133    0.53366   1.00
C6       0.55899    0.80261    0.50664   1.00
H2       0.66171    0.80308    0.41169   1.00
C6       0.62487    0.85254    0.42228   1.00
C6       0.68295    0.83501    0.46151   1.00
C6       0.70827    0.63894    0.48929   1.00
C6       0.73382    0.64079    0.55775   1.00
H2       0.68641    0.60703    0.53788   1.00
H2       0.67530    0.67173    0.60949   1.00
C6       0.61539    0.68721    0.61622   1.00
C6       0.64214    0.61905    0.61607   1.00
H2       0.58839    0.64922    0.54625   1.00
C6       0.59769    0.66315    0.48664   1.00
C6       0.61089    0.59846    0.51756   1.00
H2       0.61981    0.71312    0.39654   1.00
H2       0.61863    0.75680    0.36910   1.00
H2       0.57743    0.72575    0.37083   1.00
H2       0.52631    0.77235    0.40392   1.00
H2       0.54697    0.81252    0.42822   1.00
H2       0.56130    0.80117    0.38036   1.00
H2       0.61436    0.80779    0.56328   1.00
H2       0.65620    0.80250    0.53468   1.00
H2       0.62428    0.84233    0.52648   1.00
H2       0.53837    0.78374    0.49138   1.00
H2       0.54896    0.80404    0.53692   1.00
H2       0.55713    0.83202    0.49450   1.00
H2       0.60545    0.86388    0.44486   1.00
H2       0.64395    0.87637    0.41292   1.00
H2       0.60771    0.84512    0.39668   1.00
H2       0.67288    0.85812    0.48098   1.00
H2       0.69860    0.81411    0.47932   1.00
H2       0.70433    0.84808    0.44172   1.00
H2       0.72561    0.66485    0.48312   1.00
H2       0.72632    0.61368    0.48191   1.00
H2       0.68342    0.63867    0.46952   1.00
H2       0.75511    0.61877    0.54875   1.00
H2       0.74778    0.66908    0.55426   1.00
H2       0.72862    0.63599    0.58878   1.00
H2       0.61845    0.68835    0.64798   1.00
H2       0.61768    0.71721    0.60565   1.00
H2       0.58611    0.67657    0.60965   1.00
H2       0.66433    0.59864    0.60584   1.00
H2       0.64463    0.62031    0.64788   1.00
H2       0.61340    0.60714    0.60915   1.00
H2       0.61933    0.66073    0.46344   1.00
H2       0.57037    0.65048    0.47619   1.00
H2       0.59227    0.69395    0.49166   1.00
H2       0.58154    0.58881    0.50956   1.00
H2       0.63053    0.59035    0.49378   1.00
H2       0.61923    0.58194    0.54343   1.00
C4       0.25281    0.25117    1.02084   1.00
C4       0.25255    0.25049    0.97912   1.00
C3       0.28690    0.24529    1.04364   1.00
C3       0.28553    0.24037    0.95616   1.00
C3       0.21704    0.25747    1.04123   1.00
C3       0.21756    0.26053    0.95886   1.00
C2       0.25057    0.25105    1.10512   1.00
C2       0.24943    0.24895    0.89488   1.00
C3       0.28581    0.24500    1.08462   1.00
C3       0.28414    0.23996    0.91519   1.00
C3       0.21667    0.25781    1.08258   1.00
C3       0.21631    0.25832    0.91762   1.00
H1       0.31355    0.24117    1.03115   1.00
H1       0.31146    0.23275    0.96852   1.00
C5       0.18189    0.26357    1.02020   1.00
C5       0.18392    0.27238    0.97980   1.00
H1       0.31134    0.24031    1.09955   1.00
H1       0.30899    0.23274    0.90010   1.00
H1       0.19100    0.26344    1.09680   1.00
H1       0.19038    0.26317    0.90368   1.00
O3       0.14668    0.26312    1.03961   1.00
O3       0.15261    0.28948    0.96099   1.00
Si1      0.12170    0.22264    1.04247   1.00
Si1      0.15353    0.33638    0.95279   1.00
C6       0.08587    0.23957    1.07538   1.00
C6       0.10159    0.21365    0.99598   1.00
C6       0.14855    0.18351    1.06253   1.00
C6       0.19551    0.36283    0.96693   1.00
C6       0.14777    0.33942    0.90198   1.00
C6       0.11164    0.35649    0.97477   1.00
C6       0.10145    0.26224    1.11194   1.00
H2       0.07045    0.26131    1.05791   1.00
C6       0.05344    0.21149    1.09147   1.00
H2       0.10033    0.24295    0.98358   1.00
C6       0.12572    0.18867    0.96634   1.00
C6       0.05899    0.19739    0.99336   1.00
H2       0.16171    0.19692    1.08831   1.00
C6       0.12487    0.14746    1.07772   1.00
C6       0.18295    0.16499    1.03849   1.00
C6       0.20827    0.36106    1.01071   1.00
C6       0.23382    0.35921    0.94225   1.00
H2       0.18641    0.39297    0.96212   1.00
H2       0.17530    0.32827    0.89051   1.00
C6       0.11539    0.31279    0.88378   1.00
C6       0.14214    0.38095    0.88393   1.00
H2       0.08839    0.35078    0.95375   1.00
C6       0.09769    0.33685    1.01336   1.00
C6       0.11089    0.40154    0.98244   1.00
H2       0.11981    0.28688    1.10346   1.00
H2       0.11863    0.24320    1.13090   1.00
H2       0.07743    0.27425    1.12917   1.00
H2       0.02631    0.22765    1.09608   1.00
H2       0.04697    0.18748    1.07178   1.00
H2       0.06130    0.19883    1.11964   1.00
H2       0.11436    0.19221    0.93672   1.00
H2       0.15620    0.19750    0.96532   1.00
H2       0.12428    0.15767    0.97352   1.00
H2       0.03837    0.21626    1.00862   1.00
H2       0.04896    0.19596    0.96308   1.00
H2       0.05713    0.16798    1.00550   1.00
H2       0.10545    0.13612    1.05514   1.00
H2       0.14395    0.12363    1.08708   1.00
H2       0.10771    0.15488    1.10332   1.00
H2       0.17288    0.14188    1.01902   1.00
H2       0.19860    0.18589    1.02068   1.00
H2       0.20433    0.15192    1.05828   1.00
H2       0.22561    0.33515    1.01688   1.00
H2       0.22632    0.38632    1.01809   1.00
H2       0.18342    0.36133    1.03048   1.00
H2       0.25511    0.38123    0.95125   1.00
H2       0.24778    0.33092    0.94574   1.00
H2       0.22862    0.36401    0.91122   1.00
H2       0.11845    0.31165    0.85202   1.00
H2       0.11768    0.28279    0.89435   1.00
H2       0.08611    0.32343    0.89035   1.00
H2       0.16433    0.40136    0.89416   1.00
H2       0.14463    0.37969    0.85212   1.00
H2       0.11340    0.39286    0.89085   1.00
H2       0.11933    0.33927    1.03656   1.00
H2       0.07037    0.34952    1.02381   1.00
H2       0.09227    0.30605    1.00834   1.00
H2       0.08154    0.41119    0.99044   1.00
H2       0.13053    0.40965    1.00622   1.00
H2       0.11923    0.41806    0.95657   1.00
C4       0.25117    0.52084    0.75281   1.00
C4       0.25049    0.47912    0.75255   1.00
C3       0.24529    0.54364    0.78690   1.00
C3       0.24037    0.45616    0.78553   1.00
C3       0.25747    0.54123    0.71704   1.00
C3       0.26053    0.45886    0.71756   1.00
C2       0.25105    0.60512    0.75057   1.00
C2       0.24895    0.39488    0.74943   1.00
C3       0.24500    0.58462    0.78581   1.00
C3       0.23996    0.41519    0.78414   1.00
C3       0.25781    0.58258    0.71667   1.00
C3       0.25832    0.41762    0.71631   1.00
H1       0.24117    0.53115    0.81355   1.00
H1       0.23275    0.46852    0.81146   1.00
C5       0.26357    0.52020    0.68189   1.00
C5       0.27238    0.47980    0.68392   1.00
H1       0.24031    0.59955    0.81134   1.00
H1       0.23274    0.40010    0.80899   1.00
H1       0.26344    0.59680    0.69100   1.00
H1       0.26317    0.40368    0.69038   1.00
O3       0.26312    0.53961    0.64668   1.00
O3       0.28948    0.46099    0.65261   1.00
Si1      0.22264    0.54247    0.62170   1.00
Si1      0.33638    0.45279    0.65353   1.00
C6       0.23957    0.57538    0.58587   1.00
C6       0.21365    0.49598    0.60159   1.00
C6       0.18351    0.56253    0.64855   1.00
C6       0.36283    0.46693    0.69551   1.00
C6       0.33942    0.40198    0.64777   1.00
C6       0.35649    0.47477    0.61164   1.00
C6       0.26224    0.61194    0.60145   1.00
H2       0.26131    0.55791    0.57045   1.00
C6       0.21149    0.59147    0.55344   1.00
H2       0.24295    0.48358    0.60033   1.00
C6       0.18867    0.46634    0.62572   1.00
C6       0.19739    0.49336    0.55899   1.00
H2       0.19692    0.58831    0.66171   1.00
C6       0.14746    0.57772    0.62487   1.00
C6       0.16499    0.53849    0.68295   1.00
C6       0.36106    0.51071    0.70827   1.00
C6       0.35921    0.44225    0.73382   1.00
H2       0.39297    0.46212    0.68641   1.00
H2       0.32827    0.39051    0.67530   1.00
C6       0.31279    0.38378    0.61539   1.00
C6       0.38095    0.38393    0.64214   1.00
H2       0.35078    0.45375    0.58839   1.00
C6       0.33685    0.51336    0.59769   1.00
C6       0.40154    0.48244    0.61089   1.00
H2       0.28688    0.60346    0.61981   1.00
H2       0.24320    0.63090    0.61863   1.00
H2       0.27425    0.62917    0.57743   1.00
H2       0.22765    0.59608    0.52631   1.00
H2       0.18748    0.57178    0.54697   1.00
H2       0.19883    0.61964    0.56130   1.00
H2       0.19221    0.43672    0.61436   1.00
H2       0.19750    0.46532    0.65620   1.00
H2       0.15767    0.47352    0.62428   1.00
H2       0.21626    0.50862    0.53837   1.00
H2       0.19596    0.46308    0.54896   1.00
H2       0.16798    0.50550    0.55713   1.00
H2       0.13612    0.55514    0.60545   1.00
H2       0.12363    0.58708    0.64395   1.00
H2       0.15488    0.60332    0.60771   1.00
H2       0.14188    0.51902    0.67288   1.00
H2       0.18589    0.52068    0.69860   1.00
H2       0.15192    0.55828    0.70433   1.00
H2       0.33515    0.51688    0.72561   1.00
H2       0.38632    0.51809    0.72632   1.00
H2       0.36133    0.53048    0.68342   1.00
H2       0.38123    0.45125    0.75511   1.00
H2       0.33092    0.44574    0.74778   1.00
H2       0.36401    0.41122    0.72862   1.00
H2       0.31165    0.35202    0.61845   1.00
H2       0.28279    0.39435    0.61768   1.00
H2       0.32343    0.39035    0.58611   1.00
H2       0.40136    0.39416    0.66433   1.00
H2       0.37969    0.35212    0.64463   1.00
H2       0.39286    0.39085    0.61340   1.00
H2       0.33927    0.53656    0.61933   1.00
H2       0.34952    0.52381    0.57037   1.00
H2       0.30605    0.50834    0.59227   1.00
H2       0.41119    0.49044    0.58154   1.00
H2       0.40965    0.50622    0.63053   1.00
H2       0.41806    0.45657    0.61923   1.00
C4       -0.02084   0.25281    0.74883   1.00
C4       0.02088    0.25255    0.74951   1.00
C3       -0.04364   0.28690    0.75471   1.00
C3       0.04384    0.28553    0.75963   1.00
C3       -0.04123   0.21704    0.74253   1.00
C3       0.04114    0.21756    0.73947   1.00
C2       -0.10512   0.25057    0.74895   1.00
C2       0.10512    0.24943    0.75105   1.00
C3       -0.08462   0.28581    0.75500   1.00
C3       0.08481    0.28414    0.76004   1.00
C3       -0.08258   0.21667    0.74219   1.00
C3       0.08238    0.21631    0.74168   1.00
H1       -0.03115   0.31355    0.75883   1.00
H1       0.03148    0.31146    0.76725   1.00
C5       -0.02020   0.18189    0.73643   1.00
C5       0.02020    0.18392    0.72762   1.00
H1       -0.09955   0.31134    0.75969   1.00
H1       0.09990    0.30899    0.76726   1.00
H1       -0.09680   0.19100    0.73656   1.00
H1       0.09632    0.19038    0.73683   1.00
O3       -0.03961   0.14668    0.73688   1.00
O3       0.03901    0.15261    0.71052   1.00
Si1      -0.04247   0.12170    0.77736   1.00
Si1      0.04721    0.15353    0.66362   1.00
C6       -0.07538   0.08587    0.76043   1.00
C6       0.00402    0.10159    0.78635   1.00
C6       -0.06253   0.14855    0.81649   1.00
C6       0.03307    0.19551    0.63717   1.00
C6       0.09802    0.14777    0.66058   1.00
C6       0.02523    0.11164    0.64351   1.00
C6       -0.11194   0.10145    0.73776   1.00
H2       -0.05791   0.07045    0.73869   1.00
C6       -0.09147   0.05344    0.78851   1.00
H2       0.01642    0.10033    0.75705   1.00
C6       0.03366    0.12572    0.81133   1.00
C6       0.00664    0.05899    0.80261   1.00
H2       -0.08831   0.16171    0.80308   1.00
C6       -0.07772   0.12487    0.85254   1.00
C6       -0.03849   0.18295    0.83501   1.00
C6       -0.01071   0.20827    0.63894   1.00
C6       0.05775    0.23382    0.64079   1.00
H2       0.03788    0.18641    0.60703   1.00
H2       0.10949    0.17530    0.67173   1.00
C6       0.11622    0.11539    0.68721   1.00
C6       0.11607    0.14214    0.61905   1.00
H2       0.04625    0.08839    0.64922   1.00
C6       -0.01336   0.09769    0.66315   1.00
C6       0.01756    0.11089    0.59846   1.00
H2       -0.10346   0.11981    0.71312   1.00
H2       -0.13090   0.11863    0.75680   1.00
H2       -0.12917   0.07743    0.72575   1.00
H2       -0.09608   0.02631    0.77235   1.00
H2       -0.07178   0.04697    0.81252   1.00
H2       -0.11964   0.06130    0.80117   1.00
H2       0.06328    0.11436    0.80779   1.00
H2       0.03468    0.15620    0.80250   1.00
H2       0.02648    0.12428    0.84233   1.00
H2       -0.00862   0.03837    0.78374   1.00
H2       0.03692    0.04896    0.80404   1.00
H2       -0.00550   0.05713    0.83202   1.00
H2       -0.05514   0.10545    0.86388   1.00
H2       -0.08708   0.14395    0.87637   1.00
H2       -0.10332   0.10771    0.84512   1.00
H2       -0.01902   0.17288    0.85812   1.00
H2       -0.02068   0.19860    0.81411   1.00
H2       -0.05828   0.20433    0.84808   1.00
H2       -0.01688   0.22561    0.66485   1.00
H2       -0.01809   0.22632    0.61368   1.00
H2       -0.03048   0.18342    0.63867   1.00
H2       0.04875    0.25511    0.61877   1.00
H2       0.05426    0.24778    0.66908   1.00
H2       0.08878    0.22862    0.63599   1.00
H2       0.14798    0.11845    0.68835   1.00
H2       0.10565    0.11768    0.71721   1.00
H2       0.10965    0.08611    0.67657   1.00
H2       0.10584    0.16433    0.59864   1.00
H2       0.14788    0.14463    0.62031   1.00
H2       0.10915    0.11340    0.60714   1.00
H2       -0.03656   0.11933    0.66073   1.00
H2       -0.02381   0.07037    0.65048   1.00
H2       -0.00834   0.09227    0.69395   1.00
H2       0.00956    0.08154    0.58881   1.00
H2       -0.00622   0.13053    0.59035   1.00
H2       0.04343    0.11923    0.58194   1.00
C4       0.52084    0.25281    0.75117   1.00
C4       0.47912    0.25255    0.75049   1.00
C3       0.54364    0.28690    0.74529   1.00
C3       0.45616    0.28553    0.74037   1.00
C3       0.54123    0.21704    0.75747   1.00
C3       0.45886    0.21756    0.76053   1.00
C2       0.60512    0.25057    0.75105   1.00
C2       0.39488    0.24943    0.74895   1.00
C3       0.58462    0.28581    0.74500   1.00
C3       0.41519    0.28414    0.73996   1.00
C3       0.58258    0.21667    0.75781   1.00
C3       0.41762    0.21631    0.75832   1.00
H1       0.53115    0.31355    0.74117   1.00
H1       0.46852    0.31146    0.73275   1.00
C5       0.52020    0.18189    0.76357   1.00
C5       0.47980    0.18392    0.77238   1.00
H1       0.59955    0.31134    0.74031   1.00
H1       0.40010    0.30899    0.73274   1.00
H1       0.59680    0.19100    0.76344   1.00
H1       0.40368    0.19038    0.76317   1.00
O3       0.53961    0.14668    0.76312   1.00
O3       0.46099    0.15261    0.78948   1.00
Si1      0.54247    0.12170    0.72264   1.00
Si1      0.45279    0.15353    0.83638   1.00
C6       0.57538    0.08587    0.73957   1.00
C6       0.49598    0.10159    0.71365   1.00
C6       0.56253    0.14855    0.68351   1.00
C6       0.46693    0.19551    0.86283   1.00
C6       0.40198    0.14777    0.83942   1.00
C6       0.47477    0.11164    0.85649   1.00
C6       0.61194    0.10145    0.76224   1.00
H2       0.55791    0.07045    0.76131   1.00
C6       0.59147    0.05344    0.71149   1.00
H2       0.48358    0.10033    0.74295   1.00
C6       0.46634    0.12572    0.68867   1.00
C6       0.49336    0.05899    0.69739   1.00
H2       0.58831    0.16171    0.69692   1.00
C6       0.57772    0.12487    0.64746   1.00
C6       0.53849    0.18295    0.66499   1.00
C6       0.51071    0.20827    0.86106   1.00
C6       0.44225    0.23382    0.85921   1.00
H2       0.46212    0.18641    0.89297   1.00
H2       0.39051    0.17530    0.82827   1.00
C6       0.38378    0.11539    0.81279   1.00
C6       0.38393    0.14214    0.88095   1.00
H2       0.45375    0.08839    0.85078   1.00
C6       0.51336    0.09769    0.83685   1.00
C6       0.48244    0.11089    0.90154   1.00
H2       0.60346    0.11981    0.78688   1.00
H2       0.63090    0.11863    0.74320   1.00
H2       0.62917    0.07743    0.77425   1.00
H2       0.59608    0.02631    0.72765   1.00
H2       0.57178    0.04697    0.68748   1.00
H2       0.61964    0.06130    0.69883   1.00
H2       0.43672    0.11436    0.69221   1.00
H2       0.46532    0.15620    0.69750   1.00
H2       0.47352    0.12428    0.65767   1.00
H2       0.50862    0.03837    0.71626   1.00
H2       0.46308    0.04896    0.69596   1.00
H2       0.50550    0.05713    0.66798   1.00
H2       0.55514    0.10545    0.63612   1.00
H2       0.58708    0.14395    0.62363   1.00
H2       0.60332    0.10771    0.65488   1.00
H2       0.51902    0.17288    0.64188   1.00
H2       0.52068    0.19860    0.68589   1.00
H2       0.55828    0.20433    0.65192   1.00
H2       0.51688    0.22561    0.83515   1.00
H2       0.51809    0.22632    0.88632   1.00
H2       0.53048    0.18342    0.86133   1.00
H2       0.45125    0.25511    0.88123   1.00
H2       0.44574    0.24778    0.83092   1.00
H2       0.41122    0.22862    0.86401   1.00
H2       0.35202    0.11845    0.81165   1.00
H2       0.39435    0.11768    0.78279   1.00
H2       0.39035    0.08611    0.82343   1.00
H2       0.39416    0.16433    0.90136   1.00
H2       0.35212    0.14463    0.87969   1.00
H2       0.39085    0.11340    0.89286   1.00
H2       0.53656    0.11933    0.83927   1.00
H2       0.52381    0.07037    0.84952   1.00
H2       0.50834    0.09227    0.80605   1.00
H2       0.49044    0.08154    0.91119   1.00
H2       0.50622    0.13053    0.90965   1.00
H2       0.45657    0.11923    0.91806   1.00
C4       0.24883    -0.02084   0.75281   1.00
C4       0.24951    0.02088    0.75255   1.00
C3       0.25471    -0.04364   0.78690   1.00
C3       0.25963    0.04384    0.78553   1.00
C3       0.24253    -0.04123   0.71704   1.00
C3       0.23947    0.04114    0.71756   1.00
C2       0.24895    -0.10512   0.75057   1.00
C2       0.25105    0.10512    0.74943   1.00
C3       0.25500    -0.08462   0.78581   1.00
C3       0.26004    0.08481    0.78414   1.00
C3       0.24219    -0.08258   0.71667   1.00
C3       0.24168    0.08238    0.71631   1.00
H1       0.25883    -0.03115   0.81355   1.00
H1       0.26725    0.03148    0.81146   1.00
C5       0.23643    -0.02020   0.68189   1.00
C5       0.22762    0.02020    0.68392   1.00
H1       0.25969    -0.09955   0.81134   1.00
H1       0.26726    0.09990    0.80899   1.00
H1       0.23656    -0.09680   0.69100   1.00
H1       0.23683    0.09632    0.69038   1.00
O3       0.23688    -0.03961   0.64668   1.00
O3       0.21052    0.03901    0.65261   1.00
Si1      0.27736    -0.04247   0.62170   1.00
Si1      0.16362    0.04721    0.65353   1.00
C6       0.26043    -0.07538   0.58587   1.00
C6       0.28635    0.00402    0.60159   1.00
C6       0.31649    -0.06253   0.64855   1.00
C6       0.13717    0.03307    0.69551   1.00
C6       0.16058    0.09802    0.64777   1.00
C6       0.14351    0.02523    0.61164   1.00
C6       0.23776    -0.11194   0.60145   1.00
H2       0.23869    -0.05791   0.57045   1.00
C6       0.28851    -0.09147   0.55344   1.00
H2       0.25705    0.01642    0.60033   1.00
C6       0.31133    0.03366    0.62572   1.00
C6       0.30261    0.00664    0.55899   1.00
H2       0.30308    -0.08831   0.66171   1.00
C6       0.35254    -0.07772   0.62487   1.00
C6       0.33501    -0.03849   0.68295   1.00
C6       0.13894    -0.01071   0.70827   1.00
C6       0.14079    0.05775    0.73382   1.00
H2       0.10703    0.03788    0.68641   1.00
H2       0.17173    0.10949    0.67530   1.00
C6       0.18721    0.11622    0.61539   1.00
C6       0.11905    0.11607    0.64214   1.00
H2       0.14922    0.04625    0.58839   1.00
C6       0.16315    -0.01336   0.59769   1.00
C6       0.09846    0.01756    0.61089   1.00
H2       0.21312    -0.10346   0.61981   1.00
H2       0.25680    -0.13090   0.61863   1.00
H2       0.22575    -0.12917   0.57743   1.00
H2       0.27235    -0.09608   0.52631   1.00
H2       0.31252    -0.07178   0.54697   1.00
H2       0.30117    -0.11964   0.56130   1.00
H2       0.30779    0.06328    0.61436   1.00
H2       0.30250    0.03468    0.65620   1.00
H2       0.34233    0.02648    0.62428   1.00
H2       0.28374    -0.00862   0.53837   1.00
H2       0.30404    0.03692    0.54896   1.00
H2       0.33202    -0.00550   0.55713   1.00
H2       0.36388    -0.05514   0.60545   1.00
H2       0.37637    -0.08708   0.64395   1.00
H2       0.34512    -0.10332   0.60771   1.00
H2       0.35812    -0.01902   0.67288   1.00
H2       0.31411    -0.02068   0.69860   1.00
H2       0.34808    -0.05828   0.70433   1.00
H2       0.16485    -0.01688   0.72561   1.00
H2       0.11368    -0.01809   0.72632   1.00
H2       0.13867    -0.03048   0.68342   1.00
H2       0.11877    0.04875    0.75511   1.00
H2       0.16908    0.05426    0.74778   1.00
H2       0.13599    0.08878    0.72862   1.00
H2       0.18835    0.14798    0.61845   1.00
H2       0.21721    0.10565    0.61768   1.00
H2       0.17657    0.10965    0.58611   1.00
H2       0.09864    0.10584    0.66433   1.00
H2       0.12031    0.14788    0.64463   1.00
H2       0.10714    0.10915    0.61340   1.00
H2       0.16073    -0.03656   0.61933   1.00
H2       0.15048    -0.02381   0.57037   1.00
H2       0.19395    -0.00834   0.59227   1.00
H2       0.08881    0.00956    0.58154   1.00
H2       0.09035    -0.00622   0.63053   1.00
H2       0.08194    0.04343    0.61923   1.00
C4       0.25281    0.24883    0.47916   1.00
C4       0.25255    0.24951    0.52088   1.00
C3       0.28690    0.25471    0.45636   1.00
C3       0.28553    0.25963    0.54384   1.00
C3       0.21704    0.24253    0.45877   1.00
C3       0.21756    0.23947    0.54114   1.00
C2       0.25057    0.24895    0.39488   1.00
C2       0.24943    0.25105    0.60512   1.00
C3       0.28581    0.25500    0.41538   1.00
C3       0.28414    0.26004    0.58481   1.00
C3       0.21667    0.24219    0.41742   1.00
C3       0.21631    0.24168    0.58238   1.00
H1       0.31355    0.25883    0.46885   1.00
H1       0.31146    0.26725    0.53148   1.00
C5       0.18189    0.23643    0.47980   1.00
C5       0.18392    0.22762    0.52020   1.00
H1       0.31134    0.25969    0.40045   1.00
H1       0.30899    0.26726    0.59990   1.00
H1       0.19100    0.23656    0.40320   1.00
H1       0.19038    0.23683    0.59632   1.00
O3       0.14668    0.23688    0.46039   1.00
O3       0.15261    0.21052    0.53901   1.00
Si1      0.12170    0.27736    0.45753   1.00
Si1      0.15353    0.16362    0.54721   1.00
C6       0.08587    0.26043    0.42462   1.00
C6       0.10159    0.28635    0.50402   1.00
C6       0.14855    0.31649    0.43747   1.00
C6       0.19551    0.13717    0.53307   1.00
C6       0.14777    0.16058    0.59802   1.00
C6       0.11164    0.14351    0.52523   1.00
C6       0.10145    0.23776    0.38806   1.00
H2       0.07045    0.23869    0.44209   1.00
C6       0.05344    0.28851    0.40853   1.00
H2       0.10033    0.25705    0.51642   1.00
C6       0.12572    0.31133    0.53366   1.00
C6       0.05899    0.30261    0.50664   1.00
H2       0.16171    0.30308    0.41169   1.00
C6       0.12487    0.35254    0.42228   1.00
C6       0.18295    0.33501    0.46151   1.00
C6       0.20827    0.13894    0.48929   1.00
C6       0.23382    0.14079    0.55775   1.00
H2       0.18641    0.10703    0.53788   1.00
H2       0.17530    0.17173    0.60949   1.00
C6       0.11539    0.18721    0.61622   1.00
C6       0.14214    0.11905    0.61607   1.00
H2       0.08839    0.14922    0.54625   1.00
C6       0.09769    0.16315    0.48664   1.00
C6       0.11089    0.09846    0.51756   1.00
H2       0.11981    0.21312    0.39654   1.00
H2       0.11863    0.25680    0.36910   1.00
H2       0.07743    0.22575    0.37083   1.00
H2       0.02631    0.27235    0.40392   1.00
H2       0.04697    0.31252    0.42822   1.00
H2       0.06130    0.30117    0.38036   1.00
H2       0.11436    0.30779    0.56328   1.00
H2       0.15620    0.30250    0.53468   1.00
H2       0.12428    0.34233    0.52648   1.00
H2       0.03837    0.28374    0.49138   1.00
H2       0.04896    0.30404    0.53692   1.00
H2       0.05713    0.33202    0.49450   1.00
H2       0.10545    0.36388    0.44486   1.00
H2       0.14395    0.37637    0.41292   1.00
H2       0.10771    0.34512    0.39668   1.00
H2       0.17288    0.35812    0.48098   1.00
H2       0.19860    0.31411    0.47932   1.00
H2       0.20433    0.34808    0.44172   1.00
H2       0.22561    0.16485    0.48312   1.00
H2       0.22632    0.11368    0.48191   1.00
H2       0.18342    0.13867    0.46952   1.00
H2       0.25511    0.11877    0.54875   1.00
H2       0.24778    0.16908    0.55426   1.00
H2       0.22862    0.13599    0.58878   1.00
H2       0.11845    0.18835    0.64798   1.00
H2       0.11768    0.21721    0.60565   1.00
H2       0.08611    0.17657    0.60965   1.00
H2       0.16433    0.09864    0.60584   1.00
H2       0.14463    0.12031    0.64788   1.00
H2       0.11340    0.10714    0.60915   1.00
H2       0.11933    0.16073    0.46344   1.00
H2       0.07037    0.15048    0.47619   1.00
H2       0.09227    0.19395    0.49166   1.00
H2       0.08154    0.08881    0.50956   1.00
H2       0.13053    0.09035    0.49378   1.00
H2       0.11923    0.08194    0.54343   1.00
C4       0.25281    0.75117    0.52084   1.00
C4       0.25255    0.75049    0.47912   1.00
C3       0.28690    0.74529    0.54364   1.00
C3       0.28553    0.74037    0.45616   1.00
C3       0.21704    0.75747    0.54123   1.00
C3       0.21756    0.76053    0.45886   1.00
C2       0.25057    0.75105    0.60512   1.00
C2       0.24943    0.74895    0.39488   1.00
C3       0.28581    0.74500    0.58462   1.00
C3       0.28414    0.73996    0.41519   1.00
C3       0.21667    0.75781    0.58258   1.00
C3       0.21631    0.75832    0.41762   1.00
H1       0.31355    0.74117    0.53115   1.00
H1       0.31146    0.73275    0.46852   1.00
C5       0.18189    0.76357    0.52020   1.00
C5       0.18392    0.77238    0.47980   1.00
H1       0.31134    0.74031    0.59955   1.00
H1       0.30899    0.73274    0.40010   1.00
H1       0.19100    0.76344    0.59680   1.00
H1       0.19038    0.76317    0.40368   1.00
O3       0.14668    0.76312    0.53961   1.00
O3       0.15261    0.78948    0.46099   1.00
Si1      0.12170    0.72264    0.54247   1.00
Si1      0.15353    0.83638    0.45279   1.00
C6       0.08587    0.73957    0.57538   1.00
C6       0.10159    0.71365    0.49598   1.00
C6       0.14855    0.68351    0.56253   1.00
C6       0.19551    0.86283    0.46693   1.00
C6       0.14777    0.83942    0.40198   1.00
C6       0.11164    0.85649    0.47477   1.00
C6       0.10145    0.76224    0.61194   1.00
H2       0.07045    0.76131    0.55791   1.00
C6       0.05344    0.71149    0.59147   1.00
H2       0.10033    0.74295    0.48358   1.00
C6       0.12572    0.68867    0.46634   1.00
C6       0.05899    0.69739    0.49336   1.00
H2       0.16171    0.69692    0.58831   1.00
C6       0.12487    0.64746    0.57772   1.00
C6       0.18295    0.66499    0.53849   1.00
C6       0.20827    0.86106    0.51071   1.00
C6       0.23382    0.85921    0.44225   1.00
H2       0.18641    0.89297    0.46212   1.00
H2       0.17530    0.82827    0.39051   1.00
C6       0.11539    0.81279    0.38378   1.00
C6       0.14214    0.88095    0.38393   1.00
H2       0.08839    0.85078    0.45375   1.00
C6       0.09769    0.83685    0.51336   1.00
C6       0.11089    0.90154    0.48244   1.00
H2       0.11981    0.78688    0.60346   1.00
H2       0.11863    0.74320    0.63090   1.00
H2       0.07743    0.77425    0.62917   1.00
H2       0.02631    0.72765    0.59608   1.00
H2       0.04697    0.68748    0.57178   1.00
H2       0.06130    0.69883    0.61964   1.00
H2       0.11436    0.69221    0.43672   1.00
H2       0.15620    0.69750    0.46532   1.00
H2       0.12428    0.65767    0.47352   1.00
H2       0.03837    0.71626    0.50862   1.00
H2       0.04896    0.69596    0.46308   1.00
H2       0.05713    0.66798    0.50550   1.00
H2       0.10545    0.63612    0.55514   1.00
H2       0.14395    0.62363    0.58708   1.00
H2       0.10771    0.65488    0.60332   1.00
H2       0.17288    0.64188    0.51902   1.00
H2       0.19860    0.68589    0.52068   1.00
H2       0.20433    0.65192    0.55828   1.00
H2       0.22561    0.83515    0.51688   1.00
H2       0.22632    0.88632    0.51809   1.00
H2       0.18342    0.86133    0.53048   1.00
H2       0.25511    0.88123    0.45125   1.00
H2       0.24778    0.83092    0.44574   1.00
H2       0.22862    0.86401    0.41122   1.00
H2       0.11845    0.81165    0.35202   1.00
H2       0.11768    0.78279    0.39435   1.00
H2       0.08611    0.82343    0.39035   1.00
H2       0.16433    0.90136    0.39416   1.00
H2       0.14463    0.87969    0.35212   1.00
H2       0.11340    0.89286    0.39085   1.00
H2       0.11933    0.83927    0.53656   1.00
H2       0.07037    0.84952    0.52381   1.00
H2       0.09227    0.80605    0.50834   1.00
H2       0.08154    0.91119    0.49044   1.00
H2       0.13053    0.90965    0.50622   1.00
H2       0.11923    0.91806    0.45657   1.00
C4       0.25117    1.02084    0.25281   1.00
C4       0.25049    0.97912    0.25255   1.00
C3       0.24529    1.04364    0.28690   1.00
C3       0.24037    0.95616    0.28553   1.00
C3       0.25747    1.04123    0.21704   1.00
C3       0.26053    0.95886    0.21756   1.00
C2       0.25105    1.10512    0.25057   1.00
C2       0.24895    0.89488    0.24943   1.00
C3       0.24500    1.08462    0.28581   1.00
C3       0.23996    0.91519    0.28414   1.00
C3       0.25781    1.08258    0.21667   1.00
C3       0.25832    0.91762    0.21631   1.00
H1       0.24117    1.03115    0.31355   1.00
H1       0.23275    0.96852    0.31146   1.00
C5       0.26357    1.02020    0.18189   1.00
C5       0.27238    0.97980    0.18392   1.00
H1       0.24031    1.09955    0.31134   1.00
H1       0.23274    0.90010    0.30899   1.00
H1       0.26344    1.09680    0.19100   1.00
H1       0.26317    0.90368    0.19038   1.00
O3       0.26312    1.03961    0.14668   1.00
O3       0.28948    0.96099    0.15261   1.00
Si1      0.22264    1.04247    0.12170   1.00
Si1      0.33638    0.95279    0.15353   1.00
C6       0.23957    1.07538    0.08587   1.00
C6       0.21365    0.99598    0.10159   1.00
C6       0.18351    1.06253    0.14855   1.00
C6       0.36283    0.96693    0.19551   1.00
C6       0.33942    0.90198    0.14777   1.00
C6       0.35649    0.97477    0.11164   1.00
C6       0.26224    1.11194    0.10145   1.00
H2       0.26131    1.05791    0.07045   1.00
C6       0.21149    1.09147    0.05344   1.00
H2       0.24295    0.98358    0.10033   1.00
C6       0.18867    0.96634    0.12572   1.00
C6       0.19739    0.99336    0.05899   1.00
H2       0.19692    1.08831    0.16171   1.00
C6       0.14746    1.07772    0.12487   1.00
C6       0.16499    1.03849    0.18295   1.00
C6       0.36106    1.01071    0.20827   1.00
C6       0.35921    0.94225    0.23382   1.00
H2       0.39297    0.96212    0.18641   1.00
H2       0.32827    0.89051    0.17530   1.00
C6       0.31279    0.88378    0.11539   1.00
C6       0.38095    0.88393    0.14214   1.00
H2       0.35078    0.95375    0.08839   1.00
C6       0.33685    1.01336    0.09769   1.00
C6       0.40154    0.98244    0.11089   1.00
H2       0.28688    1.10346    0.11981   1.00
H2       0.24320    1.13090    0.11863   1.00
H2       0.27425    1.12917    0.07743   1.00
H2       0.22765    1.09608    0.02631   1.00
H2       0.18748    1.07178    0.04697   1.00
H2       0.19883    1.11964    0.06130   1.00
H2       0.19221    0.93672    0.11436   1.00
H2       0.19750    0.96532    0.15620   1.00
H2       0.15767    0.97352    0.12428   1.00
H2       0.21626    1.00862    0.03837   1.00
H2       0.19596    0.96308    0.04896   1.00
H2       0.16798    1.00550    0.05713   1.00
H2       0.13612    1.05514    0.10545   1.00
H2       0.12363    1.08708    0.14395   1.00
H2       0.15488    1.10332    0.10771   1.00
H2       0.14188    1.01902    0.17288   1.00
H2       0.18589    1.02068    0.19860   1.00
H2       0.15192    1.05828    0.20433   1.00
H2       0.33515    1.01688    0.22561   1.00
H2       0.38632    1.01809    0.22632   1.00
H2       0.36133    1.03048    0.18342   1.00
H2       0.38123    0.95125    0.25511   1.00
H2       0.33092    0.94574    0.24778   1.00
H2       0.36401    0.91122    0.22862   1.00
H2       0.31165    0.85202    0.11845   1.00
H2       0.28279    0.89435    0.11768   1.00
H2       0.32343    0.89035    0.08611   1.00
H2       0.40136    0.89416    0.16433   1.00
H2       0.37969    0.85212    0.14463   1.00
H2       0.39286    0.89085    0.11340   1.00
H2       0.33927    1.03656    0.11933   1.00
H2       0.34952    1.02381    0.07037   1.00
H2       0.30605    1.00834    0.09227   1.00
H2       0.41119    0.99044    0.08154   1.00
H2       0.40965    1.00622    0.13053   1.00
H2       0.41806    0.95657    0.11923   1.00
C4       -0.02084   0.75281    0.24883   1.00
C4       0.02088    0.75255    0.24951   1.00
C3       -0.04364   0.78690    0.25471   1.00
C3       0.04384    0.78553    0.25963   1.00
C3       -0.04123   0.71704    0.24253   1.00
C3       0.04114    0.71756    0.23947   1.00
C2       -0.10512   0.75057    0.24895   1.00
C2       0.10512    0.74943    0.25105   1.00
C3       -0.08462   0.78581    0.25500   1.00
C3       0.08481    0.78414    0.26004   1.00
C3       -0.08258   0.71667    0.24219   1.00
C3       0.08238    0.71631    0.24168   1.00
H1       -0.03115   0.81355    0.25883   1.00
H1       0.03148    0.81146    0.26725   1.00
C5       -0.02020   0.68189    0.23643   1.00
C5       0.02020    0.68392    0.22762   1.00
H1       -0.09955   0.81134    0.25969   1.00
H1       0.09990    0.80899    0.26726   1.00
H1       -0.09680   0.69100    0.23656   1.00
H1       0.09632    0.69038    0.23683   1.00
O3       -0.03961   0.64668    0.23688   1.00
O3       0.03901    0.65261    0.21052   1.00
Si1      -0.04247   0.62170    0.27736   1.00
Si1      0.04721    0.65353    0.16362   1.00
C6       -0.07538   0.58587    0.26043   1.00
C6       0.00402    0.60159    0.28635   1.00
C6       -0.06253   0.64855    0.31649   1.00
C6       0.03307    0.69551    0.13717   1.00
C6       0.09802    0.64777    0.16058   1.00
C6       0.02523    0.61164    0.14351   1.00
C6       -0.11194   0.60145    0.23776   1.00
H2       -0.05791   0.57045    0.23869   1.00
C6       -0.09147   0.55344    0.28851   1.00
H2       0.01642    0.60033    0.25705   1.00
C6       0.03366    0.62572    0.31133   1.00
C6       0.00664    0.55899    0.30261   1.00
H2       -0.08831   0.66171    0.30308   1.00
C6       -0.07772   0.62487    0.35254   1.00
C6       -0.03849   0.68295    0.33501   1.00
C6       -0.01071   0.70827    0.13894   1.00
C6       0.05775    0.73382    0.14079   1.00
H2       0.03788    0.68641    0.10703   1.00
H2       0.10949    0.67530    0.17173   1.00
C6       0.11622    0.61539    0.18721   1.00
C6       0.11607    0.64214    0.11905   1.00
H2       0.04625    0.58839    0.14922   1.00
C6       -0.01336   0.59769    0.16315   1.00
C6       0.01756    0.61089    0.09846   1.00
H2       -0.10346   0.61981    0.21312   1.00
H2       -0.13090   0.61863    0.25680   1.00
H2       -0.12917   0.57743    0.22575   1.00
H2       -0.09608   0.52631    0.27235   1.00
H2       -0.07178   0.54697    0.31252   1.00
H2       -0.11964   0.56130    0.30117   1.00
H2       0.06328    0.61436    0.30779   1.00
H2       0.03468    0.65620    0.30250   1.00
H2       0.02648    0.62428    0.34233   1.00
H2       -0.00862   0.53837    0.28374   1.00
H2       0.03692    0.54896    0.30404   1.00
H2       -0.00550   0.55713    0.33202   1.00
H2       -0.05514   0.60545    0.36388   1.00
H2       -0.08708   0.64395    0.37637   1.00
H2       -0.10332   0.60771    0.34512   1.00
H2       -0.01902   0.67288    0.35812   1.00
H2       -0.02068   0.69860    0.31411   1.00
H2       -0.05828   0.70433    0.34808   1.00
H2       -0.01688   0.72561    0.16485   1.00
H2       -0.01809   0.72632    0.11368   1.00
H2       -0.03048   0.68342    0.13867   1.00
H2       0.04875    0.75511    0.11877   1.00
H2       0.05426    0.74778    0.16908   1.00
H2       0.08878    0.72862    0.13599   1.00
H2       0.14798    0.61845    0.18835   1.00
H2       0.10565    0.61768    0.21721   1.00
H2       0.10965    0.58611    0.17657   1.00
H2       0.10584    0.66433    0.09864   1.00
H2       0.14788    0.64463    0.12031   1.00
H2       0.10915    0.61340    0.10714   1.00
H2       -0.03656   0.61933    0.16073   1.00
H2       -0.02381   0.57037    0.15048   1.00
H2       -0.00834   0.59227    0.19395   1.00
H2       0.00956    0.58154    0.08881   1.00
H2       -0.00622   0.63053    0.09035   1.00
H2       0.04343    0.61923    0.08194   1.00
C4       0.52084    0.75281    0.25117   1.00
C4       0.47912    0.75255    0.25049   1.00
C3       0.54364    0.78690    0.24529   1.00
C3       0.45616    0.78553    0.24037   1.00
C3       0.54123    0.71704    0.25747   1.00
C3       0.45886    0.71756    0.26053   1.00
C2       0.60512    0.75057    0.25105   1.00
C2       0.39488    0.74943    0.24895   1.00
C3       0.58462    0.78581    0.24500   1.00
C3       0.41519    0.78414    0.23996   1.00
C3       0.58258    0.71667    0.25781   1.00
C3       0.41762    0.71631    0.25832   1.00
H1       0.53115    0.81355    0.24117   1.00
H1       0.46852    0.81146    0.23275   1.00
C5       0.52020    0.68189    0.26357   1.00
C5       0.47980    0.68392    0.27238   1.00
H1       0.59955    0.81134    0.24031   1.00
H1       0.40010    0.80899    0.23274   1.00
H1       0.59680    0.69100    0.26344   1.00
H1       0.40368    0.69038    0.26317   1.00
O3       0.53961    0.64668    0.26312   1.00
O3       0.46099    0.65261    0.28948   1.00
Si1      0.54247    0.62170    0.22264   1.00
Si1      0.45279    0.65353    0.33638   1.00
C6       0.57538    0.58587    0.23957   1.00
C6       0.49598    0.60159    0.21365   1.00
C6       0.56253    0.64855    0.18351   1.00
C6       0.46693    0.69551    0.36283   1.00
C6       0.40198    0.64777    0.33942   1.00
C6       0.47477    0.61164    0.35649   1.00
C6       0.61194    0.60145    0.26224   1.00
H2       0.55791    0.57045    0.26131   1.00
C6       0.59147    0.55344    0.21149   1.00
H2       0.48358    0.60033    0.24295   1.00
C6       0.46634    0.62572    0.18867   1.00
C6       0.49336    0.55899    0.19739   1.00
H2       0.58831    0.66171    0.19692   1.00
C6       0.57772    0.62487    0.14746   1.00
C6       0.53849    0.68295    0.16499   1.00
C6       0.51071    0.70827    0.36106   1.00
C6       0.44225    0.73382    0.35921   1.00
H2       0.46212    0.68641    0.39297   1.00
H2       0.39051    0.67530    0.32827   1.00
C6       0.38378    0.61539    0.31279   1.00
C6       0.38393    0.64214    0.38095   1.00
H2       0.45375    0.58839    0.35078   1.00
C6       0.51336    0.59769    0.33685   1.00
C6       0.48244    0.61089    0.40154   1.00
H2       0.60346    0.61981    0.28688   1.00
H2       0.63090    0.61863    0.24320   1.00
H2       0.62917    0.57743    0.27425   1.00
H2       0.59608    0.52631    0.22765   1.00
H2       0.57178    0.54697    0.18748   1.00
H2       0.61964    0.56130    0.19883   1.00
H2       0.43672    0.61436    0.19221   1.00
H2       0.46532    0.65620    0.19750   1.00
H2       0.47352    0.62428    0.15767   1.00
H2       0.50862    0.53837    0.21626   1.00
H2       0.46308    0.54896    0.19596   1.00
H2       0.50550    0.55713    0.16798   1.00
H2       0.55514    0.60545    0.13612   1.00
H2       0.58708    0.64395    0.12363   1.00
H2       0.60332    0.60771    0.15488   1.00
H2       0.51902    0.67288    0.14188   1.00
H2       0.52068    0.69860    0.18589   1.00
H2       0.55828    0.70433    0.15192   1.00
H2       0.51688    0.72561    0.33515   1.00
H2       0.51809    0.72632    0.38632   1.00
H2       0.53048    0.68342    0.36133   1.00
H2       0.45125    0.75511    0.38123   1.00
H2       0.44574    0.74778    0.33092   1.00
H2       0.41122    0.72862    0.36401   1.00
H2       0.35202    0.61845    0.31165   1.00
H2       0.39435    0.61768    0.28279   1.00
H2       0.39035    0.58611    0.32343   1.00
H2       0.39416    0.66433    0.40136   1.00
H2       0.35212    0.64463    0.37969   1.00
H2       0.39085    0.61340    0.39286   1.00
H2       0.53656    0.61933    0.33927   1.00
H2       0.52381    0.57037    0.34952   1.00
H2       0.50834    0.59227    0.30605   1.00
H2       0.49044    0.58154    0.41119   1.00
H2       0.50622    0.63053    0.40965   1.00
H2       0.45657    0.61923    0.41806   1.00
C4       0.24883    0.47916    0.25281   1.00
C4       0.24951    0.52088    0.25255   1.00
C3       0.25471    0.45636    0.28690   1.00
C3       0.25963    0.54384    0.28553   1.00
C3       0.24253    0.45877    0.21704   1.00
C3       0.23947    0.54114    0.21756   1.00
C2       0.24895    0.39488    0.25057   1.00
C2       0.25105    0.60512    0.24943   1.00
C3       0.25500    0.41538    0.28581   1.00
C3       0.26004    0.58481    0.28414   1.00
C3       0.24219    0.41742    0.21667   1.00
C3       0.24168    0.58238    0.21631   1.00
H1       0.25883    0.46885    0.31355   1.00
H1       0.26725    0.53148    0.31146   1.00
C5       0.23643    0.47980    0.18189   1.00
C5       0.22762    0.52020    0.18392   1.00
H1       0.25969    0.40045    0.31134   1.00
H1       0.26726    0.59990    0.30899   1.00
H1       0.23656    0.40320    0.19100   1.00
H1       0.23683    0.59632    0.19038   1.00
O3       0.23688    0.46039    0.14668   1.00
O3       0.21052    0.53901    0.15261   1.00
Si1      0.27736    0.45753    0.12170   1.00
Si1      0.16362    0.54721    0.15353   1.00
C6       0.26043    0.42462    0.08587   1.00
C6       0.28635    0.50402    0.10159   1.00
C6       0.31649    0.43747    0.14855   1.00
C6       0.13717    0.53307    0.19551   1.00
C6       0.16058    0.59802    0.14777   1.00
C6       0.14351    0.52523    0.11164   1.00
C6       0.23776    0.38806    0.10145   1.00
H2       0.23869    0.44209    0.07045   1.00
C6       0.28851    0.40853    0.05344   1.00
H2       0.25705    0.51642    0.10033   1.00
C6       0.31133    0.53366    0.12572   1.00
C6       0.30261    0.50664    0.05899   1.00
H2       0.30308    0.41169    0.16171   1.00
C6       0.35254    0.42228    0.12487   1.00
C6       0.33501    0.46151    0.18295   1.00
C6       0.13894    0.48929    0.20827   1.00
C6       0.14079    0.55775    0.23382   1.00
H2       0.10703    0.53788    0.18641   1.00
H2       0.17173    0.60949    0.17530   1.00
C6       0.18721    0.61622    0.11539   1.00
C6       0.11905    0.61607    0.14214   1.00
H2       0.14922    0.54625    0.08839   1.00
C6       0.16315    0.48664    0.09769   1.00
C6       0.09846    0.51756    0.11089   1.00
H2       0.21312    0.39654    0.11981   1.00
H2       0.25680    0.36910    0.11863   1.00
H2       0.22575    0.37083    0.07743   1.00
H2       0.27235    0.40392    0.02631   1.00
H2       0.31252    0.42822    0.04697   1.00
H2       0.30117    0.38036    0.06130   1.00
H2       0.30779    0.56328    0.11436   1.00
H2       0.30250    0.53468    0.15620   1.00
H2       0.34233    0.52648    0.12428   1.00
H2       0.28374    0.49138    0.03837   1.00
H2       0.30404    0.53692    0.04896   1.00
H2       0.33202    0.49450    0.05713   1.00
H2       0.36388    0.44486    0.10545   1.00
H2       0.37637    0.41292    0.14395   1.00
H2       0.34512    0.39668    0.10771   1.00
H2       0.35812    0.48098    0.17288   1.00
H2       0.31411    0.47932    0.19860   1.00
H2       0.34808    0.44172    0.20433   1.00
H2       0.16485    0.48312    0.22561   1.00
H2       0.11368    0.48191    0.22632   1.00
H2       0.13867    0.46952    0.18342   1.00
H2       0.11877    0.54875    0.25511   1.00
H2       0.16908    0.55426    0.24778   1.00
H2       0.13599    0.58878    0.22862   1.00
H2       0.18835    0.64798    0.11845   1.00
H2       0.21721    0.60565    0.11768   1.00
H2       0.17657    0.60965    0.08611   1.00
H2       0.09864    0.60584    0.16433   1.00
H2       0.12031    0.64788    0.14463   1.00
H2       0.10714    0.60915    0.11340   1.00
H2       0.16073    0.46344    0.11933   1.00
H2       0.15048    0.47619    0.07037   1.00
H2       0.19395    0.49166    0.09227   1.00
H2       0.08881    0.50956    0.08154   1.00
H2       0.09035    0.49378    0.13053   1.00
H2       0.08194    0.54343    0.11923   1.00
C4       0.25281    0.74883    -0.02084   1.00
C4       0.25255    0.74951    0.02088   1.00
C3       0.28690    0.75471    -0.04364   1.00
C3       0.28553    0.75963    0.04384   1.00
C3       0.21704    0.74253    -0.04123   1.00
C3       0.21756    0.73947    0.04114   1.00
C2       0.25057    0.74895    -0.10512   1.00
C2       0.24943    0.75105    0.10512   1.00
C3       0.28581    0.75500    -0.08462   1.00
C3       0.28414    0.76004    0.08481   1.00
C3       0.21667    0.74219    -0.08258   1.00
C3       0.21631    0.74168    0.08238   1.00
H1       0.31355    0.75883    -0.03115   1.00
H1       0.31146    0.76725    0.03148   1.00
C5       0.18189    0.73643    -0.02020   1.00
C5       0.18392    0.72762    0.02020   1.00
H1       0.31134    0.75969    -0.09955   1.00
H1       0.30899    0.76726    0.09990   1.00
H1       0.19100    0.73656    -0.09680   1.00
H1       0.19038    0.73683    0.09632   1.00
O3       0.14668    0.73688    -0.03961   1.00
O3       0.15261    0.71052    0.03901   1.00
Si1      0.12170    0.77736    -0.04247   1.00
Si1      0.15353    0.66362    0.04721   1.00
C6       0.08587    0.76043    -0.07538   1.00
C6       0.10159    0.78635    0.00402   1.00
C6       0.14855    0.81649    -0.06253   1.00
C6       0.19551    0.63717    0.03307   1.00
C6       0.14777    0.66058    0.09802   1.00
C6       0.11164    0.64351    0.02523   1.00
C6       0.10145    0.73776    -0.11194   1.00
H2       0.07045    0.73869    -0.05791   1.00
C6       0.05344    0.78851    -0.09147   1.00
H2       0.10033    0.75705    0.01642   1.00
C6       0.12572    0.81133    0.03366   1.00
C6       0.05899    0.80261    0.00664   1.00
H2       0.16171    0.80308    -0.08831   1.00
C6       0.12487    0.85254    -0.07772   1.00
C6       0.18295    0.83501    -0.03849   1.00
C6       0.20827    0.63894    -0.01071   1.00
C6       0.23382    0.64079    0.05775   1.00
H2       0.18641    0.60703    0.03788   1.00
H2       0.17530    0.67173    0.10949   1.00
C6       0.11539    0.68721    0.11622   1.00
C6       0.14214    0.61905    0.11607   1.00
H2       0.08839    0.64922    0.04625   1.00
C6       0.09769    0.66315    -0.01336   1.00
C6       0.11089    0.59846    0.01756   1.00
H2       0.11981    0.71312    -0.10346   1.00
H2       0.11863    0.75680    -0.13090   1.00
H2       0.07743    0.72575    -0.12917   1.00
H2       0.02631    0.77235    -0.09608   1.00
H2       0.04697    0.81252    -0.07178   1.00
H2       0.06130    0.80117    -0.11964   1.00
H2       0.11436    0.80779    0.06328   1.00
H2       0.15620    0.80250    0.03468   1.00
H2       0.12428    0.84233    0.02648   1.00
H2       0.03837    0.78374    -0.00862   1.00
H2       0.04896    0.80404    0.03692   1.00
H2       0.05713    0.83202    -0.00550   1.00
H2       0.10545    0.86388    -0.05514   1.00
H2       0.14395    0.87637    -0.08708   1.00
H2       0.10771    0.84512    -0.10332   1.00
H2       0.17288    0.85812    -0.01902   1.00
H2       0.19860    0.81411    -0.02068   1.00
H2       0.20433    0.84808    -0.05828   1.00
H2       0.22561    0.66485    -0.01688   1.00
H2       0.22632    0.61368    -0.01809   1.00
H2       0.18342    0.63867    -0.03048   1.00
H2       0.25511    0.61877    0.04875   1.00
H2       0.24778    0.66908    0.05426   1.00
H2       0.22862    0.63599    0.08878   1.00
H2       0.11845    0.68835    0.14798   1.00
H2       0.11768    0.71721    0.10565   1.00
H2       0.08611    0.67657    0.10965   1.00
H2       0.16433    0.59864    0.10584   1.00
H2       0.14463    0.62031    0.14788   1.00
H2       0.11340    0.60714    0.10915   1.00
H2       0.11933    0.66073    -0.03656   1.00
H2       0.07037    0.65048    -0.02381   1.00
H2       0.09227    0.69395    -0.00834   1.00
H2       0.08154    0.58881    0.00956   1.00
H2       0.13053    0.59035    -0.00622   1.00
H2       0.11923    0.58194    0.04343   1.00
C4       0.75281    0.25117    0.52084   1.00
C4       0.75255    0.25049    0.47912   1.00
C3       0.78690    0.24529    0.54364   1.00
C3       0.78553    0.24037    0.45616   1.00
C3       0.71704    0.25747    0.54123   1.00
C3       0.71756    0.26053    0.45886   1.00
C2       0.75057    0.25105    0.60512   1.00
C2       0.74943    0.24895    0.39488   1.00
C3       0.78581    0.24500    0.58462   1.00
C3       0.78414    0.23996    0.41519   1.00
C3       0.71667    0.25781    0.58258   1.00
C3       0.71631    0.25832    0.41762   1.00
H1       0.81355    0.24117    0.53115   1.00
H1       0.81146    0.23275    0.46852   1.00
C5       0.68189    0.26357    0.52020   1.00
C5       0.68392    0.27238    0.47980   1.00
H1       0.81134    0.24031    0.59955   1.00
H1       0.80899    0.23274    0.40010   1.00
H1       0.69100    0.26344    0.59680   1.00
H1       0.69038    0.26317    0.40368   1.00
O3       0.64668    0.26312    0.53961   1.00
O3       0.65261    0.28948    0.46099   1.00
Si1      0.62170    0.22264    0.54247   1.00
Si1      0.65353    0.33638    0.45279   1.00
C6       0.58587    0.23957    0.57538   1.00
C6       0.60159    0.21365    0.49598   1.00
C6       0.64855    0.18351    0.56253   1.00
C6       0.69551    0.36283    0.46693   1.00
C6       0.64777    0.33942    0.40198   1.00
C6       0.61164    0.35649    0.47477   1.00
C6       0.60145    0.26224    0.61194   1.00
H2       0.57045    0.26131    0.55791   1.00
C6       0.55344    0.21149    0.59147   1.00
H2       0.60033    0.24295    0.48358   1.00
C6       0.62572    0.18867    0.46634   1.00
C6       0.55899    0.19739    0.49336   1.00
H2       0.66171    0.19692    0.58831   1.00
C6       0.62487    0.14746    0.57772   1.00
C6       0.68295    0.16499    0.53849   1.00
C6       0.70827    0.36106    0.51071   1.00
C6       0.73382    0.35921    0.44225   1.00
H2       0.68641    0.39297    0.46212   1.00
H2       0.67530    0.32827    0.39051   1.00
C6       0.61539    0.31279    0.38378   1.00
C6       0.64214    0.38095    0.38393   1.00
H2       0.58839    0.35078    0.45375   1.00
C6       0.59769    0.33685    0.51336   1.00
C6       0.61089    0.40154    0.48244   1.00
H2       0.61981    0.28688    0.60346   1.00
H2       0.61863    0.24320    0.63090   1.00
H2       0.57743    0.27425    0.62917   1.00
H2       0.52631    0.22765    0.59608   1.00
H2       0.54697    0.18748    0.57178   1.00
H2       0.56130    0.19883    0.61964   1.00
H2       0.61436    0.19221    0.43672   1.00
H2       0.65620    0.19750    0.46532   1.00
H2       0.62428    0.15767    0.47352   1.00
H2       0.53837    0.21626    0.50862   1.00
H2       0.54896    0.19596    0.46308   1.00
H2       0.55713    0.16798    0.50550   1.00
H2       0.60545    0.13612    0.55514   1.00
H2       0.64395    0.12363    0.58708   1.00
H2       0.60771    0.15488    0.60332   1.00
H2       0.67288    0.14188    0.51902   1.00
H2       0.69860    0.18589    0.52068   1.00
H2       0.70433    0.15192    0.55828   1.00
H2       0.72561    0.33515    0.51688   1.00
H2       0.72632    0.38632    0.51809   1.00
H2       0.68342    0.36133    0.53048   1.00
H2       0.75511    0.38123    0.45125   1.00
H2       0.74778    0.33092    0.44574   1.00
H2       0.72862    0.36401    0.41122   1.00
H2       0.61845    0.31165    0.35202   1.00
H2       0.61768    0.28279    0.39435   1.00
H2       0.58611    0.32343    0.39035   1.00
H2       0.66433    0.40136    0.39416   1.00
H2       0.64463    0.37969    0.35212   1.00
H2       0.61340    0.39286    0.39085   1.00
H2       0.61933    0.33927    0.53656   1.00
H2       0.57037    0.34952    0.52381   1.00
H2       0.59227    0.30605    0.50834   1.00
H2       0.58154    0.41119    0.49044   1.00
H2       0.63053    0.40965    0.50622   1.00
H2       0.61923    0.41806    0.45657   1.00
C4       0.75117    0.52084    0.25281   1.00
C4       0.75049    0.47912    0.25255   1.00
C3       0.74529    0.54364    0.28690   1.00
C3       0.74037    0.45616    0.28553   1.00
C3       0.75747    0.54123    0.21704   1.00
C3       0.76053    0.45886    0.21756   1.00
C2       0.75105    0.60512    0.25057   1.00
C2       0.74895    0.39488    0.24943   1.00
C3       0.74500    0.58462    0.28581   1.00
C3       0.73996    0.41519    0.28414   1.00
C3       0.75781    0.58258    0.21667   1.00
C3       0.75832    0.41762    0.21631   1.00
H1       0.74117    0.53115    0.31355   1.00
H1       0.73275    0.46852    0.31146   1.00
C5       0.76357    0.52020    0.18189   1.00
C5       0.77238    0.47980    0.18392   1.00
H1       0.74031    0.59955    0.31134   1.00
H1       0.73274    0.40010    0.30899   1.00
H1       0.76344    0.59680    0.19100   1.00
H1       0.76317    0.40368    0.19038   1.00
O3       0.76312    0.53961    0.14668   1.00
O3       0.78948    0.46099    0.15261   1.00
Si1      0.72264    0.54247    0.12170   1.00
Si1      0.83638    0.45279    0.15353   1.00
C6       0.73957    0.57538    0.08587   1.00
C6       0.71365    0.49598    0.10159   1.00
C6       0.68351    0.56253    0.14855   1.00
C6       0.86283    0.46693    0.19551   1.00
C6       0.83942    0.40198    0.14777   1.00
C6       0.85649    0.47477    0.11164   1.00
C6       0.76224    0.61194    0.10145   1.00
H2       0.76131    0.55791    0.07045   1.00
C6       0.71149    0.59147    0.05344   1.00
H2       0.74295    0.48358    0.10033   1.00
C6       0.68867    0.46634    0.12572   1.00
C6       0.69739    0.49336    0.05899   1.00
H2       0.69692    0.58831    0.16171   1.00
C6       0.64746    0.57772    0.12487   1.00
C6       0.66499    0.53849    0.18295   1.00
C6       0.86106    0.51071    0.20827   1.00
C6       0.85921    0.44225    0.23382   1.00
H2       0.89297    0.46212    0.18641   1.00
H2       0.82827    0.39051    0.17530   1.00
C6       0.81279    0.38378    0.11539   1.00
C6       0.88095    0.38393    0.14214   1.00
H2       0.85078    0.45375    0.08839   1.00
C6       0.83685    0.51336    0.09769   1.00
C6       0.90154    0.48244    0.11089   1.00
H2       0.78688    0.60346    0.11981   1.00
H2       0.74320    0.63090    0.11863   1.00
H2       0.77425    0.62917    0.07743   1.00
H2       0.72765    0.59608    0.02631   1.00
H2       0.68748    0.57178    0.04697   1.00
H2       0.69883    0.61964    0.06130   1.00
H2       0.69221    0.43672    0.11436   1.00
H2       0.69750    0.46532    0.15620   1.00
H2       0.65767    0.47352    0.12428   1.00
H2       0.71626    0.50862    0.03837   1.00
H2       0.69596    0.46308    0.04896   1.00
H2       0.66798    0.50550    0.05713   1.00
H2       0.63612    0.55514    0.10545   1.00
H2       0.62363    0.58708    0.14395   1.00
H2       0.65488    0.60332    0.10771   1.00
H2       0.64188    0.51902    0.17288   1.00
H2       0.68589    0.52068    0.19860   1.00
H2       0.65192    0.55828    0.20433   1.00
H2       0.83515    0.51688    0.22561   1.00
H2       0.88632    0.51809    0.22632   1.00
H2       0.86133    0.53048    0.18342   1.00
H2       0.88123    0.45125    0.25511   1.00
H2       0.83092    0.44574    0.24778   1.00
H2       0.86401    0.41122    0.22862   1.00
H2       0.81165    0.35202    0.11845   1.00
H2       0.78279    0.39435    0.11768   1.00
H2       0.82343    0.39035    0.08611   1.00
H2       0.90136    0.39416    0.16433   1.00
H2       0.87969    0.35212    0.14463   1.00
H2       0.89286    0.39085    0.11340   1.00
H2       0.83927    0.53656    0.11933   1.00
H2       0.84952    0.52381    0.07037   1.00
H2       0.80605    0.50834    0.09227   1.00
H2       0.91119    0.49044    0.08154   1.00
H2       0.90965    0.50622    0.13053   1.00
H2       0.91806    0.45657    0.11923   1.00
C4       0.47916    0.25281    0.24883   1.00
C4       0.52088    0.25255    0.24951   1.00
C3       0.45636    0.28690    0.25471   1.00
C3       0.54384    0.28553    0.25963   1.00
C3       0.45877    0.21704    0.24253   1.00
C3       0.54114    0.21756    0.23947   1.00
C2       0.39488    0.25057    0.24895   1.00
C2       0.60512    0.24943    0.25105   1.00
C3       0.41538    0.28581    0.25500   1.00
C3       0.58481    0.28414    0.26004   1.00
C3       0.41742    0.21667    0.24219   1.00
C3       0.58238    0.21631    0.24168   1.00
H1       0.46885    0.31355    0.25883   1.00
H1       0.53148    0.31146    0.26725   1.00
C5       0.47980    0.18189    0.23643   1.00
C5       0.52020    0.18392    0.22762   1.00
H1       0.40045    0.31134    0.25969   1.00
H1       0.59990    0.30899    0.26726   1.00
H1       0.40320    0.19100    0.23656   1.00
H1       0.59632    0.19038    0.23683   1.00
O3       0.46039    0.14668    0.23688   1.00
O3       0.53901    0.15261    0.21052   1.00
Si1      0.45753    0.12170    0.27736   1.00
Si1      0.54721    0.15353    0.16362   1.00
C6       0.42462    0.08587    0.26043   1.00
C6       0.50402    0.10159    0.28635   1.00
C6       0.43747    0.14855    0.31649   1.00
C6       0.53307    0.19551    0.13717   1.00
C6       0.59802    0.14777    0.16058   1.00
C6       0.52523    0.11164    0.14351   1.00
C6       0.38806    0.10145    0.23776   1.00
H2       0.44209    0.07045    0.23869   1.00
C6       0.40853    0.05344    0.28851   1.00
H2       0.51642    0.10033    0.25705   1.00
C6       0.53366    0.12572    0.31133   1.00
C6       0.50664    0.05899    0.30261   1.00
H2       0.41169    0.16171    0.30308   1.00
C6       0.42228    0.12487    0.35254   1.00
C6       0.46151    0.18295    0.33501   1.00
C6       0.48929    0.20827    0.13894   1.00
C6       0.55775    0.23382    0.14079   1.00
H2       0.53788    0.18641    0.10703   1.00
H2       0.60949    0.17530    0.17173   1.00
C6       0.61622    0.11539    0.18721   1.00
C6       0.61607    0.14214    0.11905   1.00
H2       0.54625    0.08839    0.14922   1.00
C6       0.48664    0.09769    0.16315   1.00
C6       0.51756    0.11089    0.09846   1.00
H2       0.39654    0.11981    0.21312   1.00
H2       0.36910    0.11863    0.25680   1.00
H2       0.37083    0.07743    0.22575   1.00
H2       0.40392    0.02631    0.27235   1.00
H2       0.42822    0.04697    0.31252   1.00
H2       0.38036    0.06130    0.30117   1.00
H2       0.56328    0.11436    0.30779   1.00
H2       0.53468    0.15620    0.30250   1.00
H2       0.52648    0.12428    0.34233   1.00
H2       0.49138    0.03837    0.28374   1.00
H2       0.53692    0.04896    0.30404   1.00
H2       0.49450    0.05713    0.33202   1.00
H2       0.44486    0.10545    0.36388   1.00
H2       0.41292    0.14395    0.37637   1.00
H2       0.39668    0.10771    0.34512   1.00
H2       0.48098    0.17288    0.35812   1.00
H2       0.47932    0.19860    0.31411   1.00
H2       0.44172    0.20433    0.34808   1.00
H2       0.48312    0.22561    0.16485   1.00
H2       0.48191    0.22632    0.11368   1.00
H2       0.46952    0.18342    0.13867   1.00
H2       0.54875    0.25511    0.11877   1.00
H2       0.55426    0.24778    0.16908   1.00
H2       0.58878    0.22862    0.13599   1.00
H2       0.64798    0.11845    0.18835   1.00
H2       0.60565    0.11768    0.21721   1.00
H2       0.60965    0.08611    0.17657   1.00
H2       0.60584    0.16433    0.09864   1.00
H2       0.64788    0.14463    0.12031   1.00
H2       0.60915    0.11340    0.10714   1.00
H2       0.46344    0.11933    0.16073   1.00
H2       0.47619    0.07037    0.15048   1.00
H2       0.49166    0.09227    0.19395   1.00
H2       0.50956    0.08154    0.08881   1.00
H2       0.49378    0.13053    0.09035   1.00
H2       0.54343    0.11923    0.08194   1.00
C4       1.02084    0.25281    0.25117   1.00
C4       0.97912    0.25255    0.25049   1.00
C3       1.04364    0.28690    0.24529   1.00
C3       0.95616    0.28553    0.24037   1.00
C3       1.04123    0.21704    0.25747   1.00
C3       0.95886    0.21756    0.26053   1.00
C2       1.10512    0.25057    0.25105   1.00
C2       0.89488    0.24943    0.24895   1.00
C3       1.08462    0.28581    0.24500   1.00
C3       0.91519    0.28414    0.23996   1.00
C3       1.08258    0.21667    0.25781   1.00
C3       0.91762    0.21631    0.25832   1.00
H1       1.03115    0.31355    0.24117   1.00
H1       0.96852    0.31146    0.23275   1.00
C5       1.02020    0.18189    0.26357   1.00
C5       0.97980    0.18392    0.27238   1.00
H1       1.09955    0.31134    0.24031   1.00
H1       0.90010    0.30899    0.23274   1.00
H1       1.09680    0.19100    0.26344   1.00
H1       0.90368    0.19038    0.26317   1.00
O3       1.03961    0.14668    0.26312   1.00
O3       0.96099    0.15261    0.28948   1.00
Si1      1.04247    0.12170    0.22264   1.00
Si1      0.95279    0.15353    0.33638   1.00
C6       1.07538    0.08587    0.23957   1.00
C6       0.99598    0.10159    0.21365   1.00
C6       1.06253    0.14855    0.18351   1.00
C6       0.96693    0.19551    0.36283   1.00
C6       0.90198    0.14777    0.33942   1.00
C6       0.97477    0.11164    0.35649   1.00
C6       1.11194    0.10145    0.26224   1.00
H2       1.05791    0.07045    0.26131   1.00
C6       1.09147    0.05344    0.21149   1.00
H2       0.98358    0.10033    0.24295   1.00
C6       0.96634    0.12572    0.18867   1.00
C6       0.99336    0.05899    0.19739   1.00
H2       1.08831    0.16171    0.19692   1.00
C6       1.07772    0.12487    0.14746   1.00
C6       1.03849    0.18295    0.16499   1.00
C6       1.01071    0.20827    0.36106   1.00
C6       0.94225    0.23382    0.35921   1.00
H2       0.96212    0.18641    0.39297   1.00
H2       0.89051    0.17530    0.32827   1.00
C6       0.88378    0.11539    0.31279   1.00
C6       0.88393    0.14214    0.38095   1.00
H2       0.95375    0.08839    0.35078   1.00
C6       1.01336    0.09769    0.33685   1.00
C6       0.98244    0.11089    0.40154   1.00
H2       1.10346    0.11981    0.28688   1.00
H2       1.13090    0.11863    0.24320   1.00
H2       1.12917    0.07743    0.27425   1.00
H2       1.09608    0.02631    0.22765   1.00
H2       1.07178    0.04697    0.18748   1.00
H2       1.11964    0.06130    0.19883   1.00
H2       0.93672    0.11436    0.19221   1.00
H2       0.96532    0.15620    0.19750   1.00
H2       0.97352    0.12428    0.15767   1.00
H2       1.00862    0.03837    0.21626   1.00
H2       0.96308    0.04896    0.19596   1.00
H2       1.00550    0.05713    0.16798   1.00
H2       1.05514    0.10545    0.13612   1.00
H2       1.08708    0.14395    0.12363   1.00
H2       1.10332    0.10771    0.15488   1.00
H2       1.01902    0.17288    0.14188   1.00
H2       1.02068    0.19860    0.18589   1.00
H2       1.05828    0.20433    0.15192   1.00
H2       1.01688    0.22561    0.33515   1.00
H2       1.01809    0.22632    0.38632   1.00
H2       1.03048    0.18342    0.36133   1.00
H2       0.95125    0.25511    0.38123   1.00
H2       0.94574    0.24778    0.33092   1.00
H2       0.91122    0.22862    0.36401   1.00
H2       0.85202    0.11845    0.31165   1.00
H2       0.89435    0.11768    0.28279   1.00
H2       0.89035    0.08611    0.32343   1.00
H2       0.89416    0.16433    0.40136   1.00
H2       0.85212    0.14463    0.37969   1.00
H2       0.89085    0.11340    0.39286   1.00
H2       1.03656    0.11933    0.33927   1.00
H2       1.02381    0.07037    0.34952   1.00
H2       1.00834    0.09227    0.30605   1.00
H2       0.99044    0.08154    0.41119   1.00
H2       1.00622    0.13053    0.40965   1.00
H2       0.95657    0.11923    0.41806   1.00
C4       0.74883    -0.02084   0.25281   1.00
C4       0.74951    0.02088    0.25255   1.00
C3       0.75471    -0.04364   0.28690   1.00
C3       0.75963    0.04384    0.28553   1.00
C3       0.74253    -0.04123   0.21704   1.00
C3       0.73947    0.04114    0.21756   1.00
C2       0.74895    -0.10512   0.25057   1.00
C2       0.75105    0.10512    0.24943   1.00
C3       0.75500    -0.08462   0.28581   1.00
C3       0.76004    0.08481    0.28414   1.00
C3       0.74219    -0.08258   0.21667   1.00
C3       0.74168    0.08238    0.21631   1.00
H1       0.75883    -0.03115   0.31355   1.00
H1       0.76725    0.03148    0.31146   1.00
C5       0.73643    -0.02020   0.18189   1.00
C5       0.72762    0.02020    0.18392   1.00
H1       0.75969    -0.09955   0.31134   1.00
H1       0.76726    0.09990    0.30899   1.00
H1       0.73656    -0.09680   0.19100   1.00
H1       0.73683    0.09632    0.19038   1.00
O3       0.73688    -0.03961   0.14668   1.00
O3       0.71052    0.03901    0.15261   1.00
Si1      0.77736    -0.04247   0.12170   1.00
Si1      0.66362    0.04721    0.15353   1.00
C6       0.76043    -0.07538   0.08587   1.00
C6       0.78635    0.00402    0.10159   1.00
C6       0.81649    -0.06253   0.14855   1.00
C6       0.63717    0.03307    0.19551   1.00
C6       0.66058    0.09802    0.14777   1.00
C6       0.64351    0.02523    0.11164   1.00
C6       0.73776    -0.11194   0.10145   1.00
H2       0.73869    -0.05791   0.07045   1.00
C6       0.78851    -0.09147   0.05344   1.00
H2       0.75705    0.01642    0.10033   1.00
C6       0.81133    0.03366    0.12572   1.00
C6       0.80261    0.00664    0.05899   1.00
H2       0.80308    -0.08831   0.16171   1.00
C6       0.85254    -0.07772   0.12487   1.00
C6       0.83501    -0.03849   0.18295   1.00
C6       0.63894    -0.01071   0.20827   1.00
C6       0.64079    0.05775    0.23382   1.00
H2       0.60703    0.03788    0.18641   1.00
H2       0.67173    0.10949    0.17530   1.00
C6       0.68721    0.11622    0.11539   1.00
C6       0.61905    0.11607    0.14214   1.00
H2       0.64922    0.04625    0.08839   1.00
C6       0.66315    -0.01336   0.09769   1.00
C6       0.59846    0.01756    0.11089   1.00
H2       0.71312    -0.10346   0.11981   1.00
H2       0.75680    -0.13090   0.11863   1.00
H2       0.72575    -0.12917   0.07743   1.00
H2       0.77235    -0.09608   0.02631   1.00
H2       0.81252    -0.07178   0.04697   1.00
H2       0.80117    -0.11964   0.06130   1.00
H2       0.80779    0.06328    0.11436   1.00
H2       0.80250    0.03468    0.15620   1.00
H2       0.84233    0.02648    0.12428   1.00
H2       0.78374    -0.00862   0.03837   1.00
H2       0.80404    0.03692    0.04896   1.00
H2       0.83202    -0.00550   0.05713   1.00
H2       0.86388    -0.05514   0.10545   1.00
H2       0.87637    -0.08708   0.14395   1.00
H2       0.84512    -0.10332   0.10771   1.00
H2       0.85812    -0.01902   0.17288   1.00
H2       0.81411    -0.02068   0.19860   1.00
H2       0.84808    -0.05828   0.20433   1.00
H2       0.66485    -0.01688   0.22561   1.00
H2       0.61368    -0.01809   0.22632   1.00
H2       0.63867    -0.03048   0.18342   1.00
H2       0.61877    0.04875    0.25511   1.00
H2       0.66908    0.05426    0.24778   1.00
H2       0.63599    0.08878    0.22862   1.00
H2       0.68835    0.14798    0.11845   1.00
H2       0.71721    0.10565    0.11768   1.00
H2       0.67657    0.10965    0.08611   1.00
H2       0.59864    0.10584    0.16433   1.00
H2       0.62031    0.14788    0.14463   1.00
H2       0.60714    0.10915    0.11340   1.00
H2       0.66073    -0.03656   0.11933   1.00
H2       0.65048    -0.02381   0.07037   1.00
H2       0.69395    -0.00834   0.09227   1.00
H2       0.58881    0.00956    0.08154   1.00
H2       0.59035    -0.00622   0.13053   1.00
H2       0.58194    0.04343    0.11923   1.00
C4       0.75281    0.24883    -0.02084   1.00
C4       0.75255    0.24951    0.02088   1.00
C3       0.78690    0.25471    -0.04364   1.00
C3       0.78553    0.25963    0.04384   1.00
C3       0.71704    0.24253    -0.04123   1.00
C3       0.71756    0.23947    0.04114   1.00
C2       0.75057    0.24895    -0.10512   1.00
C2       0.74943    0.25105    0.10512   1.00
C3       0.78581    0.25500    -0.08462   1.00
C3       0.78414    0.26004    0.08481   1.00
C3       0.71667    0.24219    -0.08258   1.00
C3       0.71631    0.24168    0.08238   1.00
H1       0.81355    0.25883    -0.03115   1.00
H1       0.81146    0.26725    0.03148   1.00
C5       0.68189    0.23643    -0.02020   1.00
C5       0.68392    0.22762    0.02020   1.00
H1       0.81134    0.25969    -0.09955   1.00
H1       0.80899    0.26726    0.09990   1.00
H1       0.69100    0.23656    -0.09680   1.00
H1       0.69038    0.23683    0.09632   1.00
O3       0.64668    0.23688    -0.03961   1.00
O3       0.65261    0.21052    0.03901   1.00
Si1      0.62170    0.27736    -0.04247   1.00
Si1      0.65353    0.16362    0.04721   1.00
C6       0.58587    0.26043    -0.07538   1.00
C6       0.60159    0.28635    0.00402   1.00
C6       0.64855    0.31649    -0.06253   1.00
C6       0.69551    0.13717    0.03307   1.00
C6       0.64777    0.16058    0.09802   1.00
C6       0.61164    0.14351    0.02523   1.00
C6       0.60145    0.23776    -0.11194   1.00
H2       0.57045    0.23869    -0.05791   1.00
C6       0.55344    0.28851    -0.09147   1.00
H2       0.60033    0.25705    0.01642   1.00
C6       0.62572    0.31133    0.03366   1.00
C6       0.55899    0.30261    0.00664   1.00
H2       0.66171    0.30308    -0.08831   1.00
C6       0.62487    0.35254    -0.07772   1.00
C6       0.68295    0.33501    -0.03849   1.00
C6       0.70827    0.13894    -0.01071   1.00
C6       0.73382    0.14079    0.05775   1.00
H2       0.68641    0.10703    0.03788   1.00
H2       0.67530    0.17173    0.10949   1.00
C6       0.61539    0.18721    0.11622   1.00
C6       0.64214    0.11905    0.11607   1.00
H2       0.58839    0.14922    0.04625   1.00
C6       0.59769    0.16315    -0.01336   1.00
C6       0.61089    0.09846    0.01756   1.00
H2       0.61981    0.21312    -0.10346   1.00
H2       0.61863    0.25680    -0.13090   1.00
H2       0.57743    0.22575    -0.12917   1.00
H2       0.52631    0.27235    -0.09608   1.00
H2       0.54697    0.31252    -0.07178   1.00
H2       0.56130    0.30117    -0.11964   1.00
H2       0.61436    0.30779    0.06328   1.00
H2       0.65620    0.30250    0.03468   1.00
H2       0.62428    0.34233    0.02648   1.00
H2       0.53837    0.28374    -0.00862   1.00
H2       0.54896    0.30404    0.03692   1.00
H2       0.55713    0.33202    -0.00550   1.00
H2       0.60545    0.36388    -0.05514   1.00
H2       0.64395    0.37637    -0.08708   1.00
H2       0.60771    0.34512    -0.10332   1.00
H2       0.67288    0.35812    -0.01902   1.00
H2       0.69860    0.31411    -0.02068   1.00
H2       0.70433    0.34808    -0.05828   1.00
H2       0.72561    0.16485    -0.01688   1.00
H2       0.72632    0.11368    -0.01809   1.00
H2       0.68342    0.13867    -0.03048   1.00
H2       0.75511    0.11877    0.04875   1.00
H2       0.74778    0.16908    0.05426   1.00
H2       0.72862    0.13599    0.08878   1.00
H2       0.61845    0.18835    0.14798   1.00
H2       0.61768    0.21721    0.10565   1.00
H2       0.58611    0.17657    0.10965   1.00
H2       0.66433    0.09864    0.10584   1.00
H2       0.64463    0.12031    0.14788   1.00
H2       0.61340    0.10714    0.10915   1.00
H2       0.61933    0.16073    -0.03656   1.00
H2       0.57037    0.15048    -0.02381   1.00
H2       0.59227    0.19395    -0.00834   1.00
H2       0.58154    0.08881    0.00956   1.00
H2       0.63053    0.09035    -0.00622   1.00
H2       0.61923    0.08194    0.04343   1.00
C4       1.00281    1.00117    1.27084   1.00
C4       1.00255    1.00049    1.22912   1.00
C3       1.03690    0.99529    1.29364   1.00
C3       1.03553    0.99037    1.20616   1.00
C3       0.96704    1.00747    1.29123   1.00
C3       0.96756    1.01053    1.20886   1.00
C2       1.00057    1.00105    1.35512   1.00
C2       0.99943    0.99895    1.14488   1.00
C3       1.03581    0.99500    1.33462   1.00
C3       1.03414    0.98996    1.16519   1.00
C3       0.96667    1.00781    1.33258   1.00
C3       0.96631    1.00832    1.16762   1.00
H1       1.06355    0.99117    1.28115   1.00
H1       1.06146    0.98275    1.21852   1.00
C5       0.93189    1.01357    1.27020   1.00
C5       0.93392    1.02238    1.22980   1.00
H1       1.06134    0.99031    1.34955   1.00
H1       1.05899    0.98274    1.15010   1.00
H1       0.94100    1.01344    1.34680   1.00
H1       0.94038    1.01317    1.15368   1.00
O3       0.89668    1.01312    1.28961   1.00
O3       0.90261    1.03948    1.21099   1.00
Si1      0.87170    0.97264    1.29247   1.00
Si1      0.90353    1.08638    1.20279   1.00
C6       0.83587    0.98957    1.32538   1.00
C6       0.85159    0.96365    1.24598   1.00
C6       0.89855    0.93351    1.31253   1.00
C6       0.94551    1.11283    1.21693   1.00
C6       0.89777    1.08942    1.15198   1.00
C6       0.86164    1.10649    1.22477   1.00
C6       0.85145    1.01224    1.36194   1.00
H2       0.82045    1.01131    1.30791   1.00
C6       0.80344    0.96149    1.34147   1.00
H2       0.85033    0.99295    1.23358   1.00
C6       0.87572    0.93867    1.21634   1.00
C6       0.80899    0.94739    1.24336   1.00
H2       0.91171    0.94692    1.33831   1.00
C6       0.87487    0.89746    1.32772   1.00
C6       0.93295    0.91499    1.28849   1.00
C6       0.95827    1.11106    1.26071   1.00
C6       0.98382    1.10921    1.19225   1.00
H2       0.93641    1.14297    1.21212   1.00
H2       0.92530    1.07827    1.14051   1.00
C6       0.86539    1.06279    1.13378   1.00
C6       0.89214    1.13095    1.13393   1.00
H2       0.83839    1.10078    1.20375   1.00
C6       0.84769    1.08685    1.26336   1.00
C6       0.86089    1.15154    1.23244   1.00
H2       0.86981    1.03688    1.35346   1.00
H2       0.86863    0.99320    1.38090   1.00
H2       0.82743    1.02425    1.37917   1.00
H2       0.77631    0.97765    1.34608   1.00
H2       0.79697    0.93748    1.32178   1.00
H2       0.81130    0.94883    1.36964   1.00
H2       0.86436    0.94221    1.18672   1.00
H2       0.90620    0.94750    1.21532   1.00
H2       0.87428    0.90767    1.22352   1.00
H2       0.78837    0.96626    1.25862   1.00
H2       0.79896    0.94596    1.21308   1.00
H2       0.80713    0.91798    1.25550   1.00
H2       0.85545    0.88612    1.30514   1.00
H2       0.89395    0.87363    1.33708   1.00
H2       0.85771    0.90488    1.35332   1.00
H2       0.92288    0.89188    1.26902   1.00
H2       0.94860    0.93589    1.27068   1.00
H2       0.95433    0.90192    1.30828   1.00
H2       0.97561    1.08515    1.26688   1.00
H2       0.97632    1.13632    1.26809   1.00
H2       0.93342    1.11133    1.28048   1.00
H2       1.00511    1.13123    1.20125   1.00
H2       0.99778    1.08092    1.19574   1.00
H2       0.97862    1.11401    1.16122   1.00
H2       0.86845    1.06165    1.10202   1.00
H2       0.86768    1.03279    1.14435   1.00
H2       0.83611    1.07343    1.14035   1.00
H2       0.91433    1.15136    1.14416   1.00
H2       0.89463    1.12969    1.10212   1.00
H2       0.86340    1.14286    1.14085   1.00
H2       0.86933    1.08927    1.28656   1.00
H2       0.82037    1.09952    1.27381   1.00
H2       0.84227    1.05605    1.25834   1.00
H2       0.83154    1.16119    1.24044   1.00
H2       0.88053    1.15965    1.25622   1.00
H2       0.86923    1.16806    1.20657   1.00
C4       1.00117    1.27084    1.00281   1.00
C4       1.00049    1.22912    1.00255   1.00
C3       0.99529    1.29364    1.03690   1.00
C3       0.99037    1.20616    1.03553   1.00
C3       1.00747    1.29123    0.96704   1.00
C3       1.01053    1.20886    0.96756   1.00
C2       1.00105    1.35512    1.00057   1.00
C2       0.99895    1.14488    0.99943   1.00
C3       0.99500    1.33462    1.03581   1.00
C3       0.98996    1.16519    1.03414   1.00
C3       1.00781    1.33258    0.96667   1.00
C3       1.00832    1.16762    0.96631   1.00
H1       0.99117    1.28115    1.06355   1.00
H1       0.98275    1.21852    1.06146   1.00
C5       1.01357    1.27020    0.93189   1.00
C5       1.02238    1.22980    0.93392   1.00
H1       0.99031    1.34955    1.06134   1.00
H1       0.98274    1.15010    1.05899   1.00
H1       1.01344    1.34680    0.94100   1.00
H1       1.01317    1.15368    0.94038   1.00
O3       1.01312    1.28961    0.89668   1.00
O3       1.03948    1.21099    0.90261   1.00
Si1      0.97264    1.29247    0.87170   1.00
Si1      1.08638    1.20279    0.90353   1.00
C6       0.98957    1.32538    0.83587   1.00
C6       0.96365    1.24598    0.85159   1.00
C6       0.93351    1.31253    0.89855   1.00
C6       1.11283    1.21693    0.94551   1.00
C6       1.08942    1.15198    0.89777   1.00
C6       1.10649    1.22477    0.86164   1.00
C6       1.01224    1.36194    0.85145   1.00
H2       1.01131    1.30791    0.82045   1.00
C6       0.96149    1.34147    0.80344   1.00
H2       0.99295    1.23358    0.85033   1.00
C6       0.93867    1.21634    0.87572   1.00
C6       0.94739    1.24336    0.80899   1.00
H2       0.94692    1.33831    0.91171   1.00
C6       0.89746    1.32772    0.87487   1.00
C6       0.91499    1.28849    0.93295   1.00
C6       1.11106    1.26071    0.95827   1.00
C6       1.10921    1.19225    0.98382   1.00
H2       1.14297    1.21212    0.93641   1.00
H2       1.07827    1.14051    0.92530   1.00
C6       1.06279    1.13378    0.86539   1.00
C6       1.13095    1.13393    0.89214   1.00
H2       1.10078    1.20375    0.83839   1.00
C6       1.08685    1.26336    0.84769   1.00
C6       1.15154    1.23244    0.86089   1.00
H2       1.03688    1.35346    0.86981   1.00
H2       0.99320    1.38090    0.86863   1.00
H2       1.02425    1.37917    0.82743   1.00
H2       0.97765    1.34608    0.77631   1.00
H2       0.93748    1.32178    0.79697   1.00
H2       0.94883    1.36964    0.81130   1.00
H2       0.94221    1.18672    0.86436   1.00
H2       0.94750    1.21532    0.90620   1.00
H2       0.90767    1.22352    0.87428   1.00
H2       0.96626    1.25862    0.78837   1.00
H2       0.94596    1.21308    0.79896   1.00
H2       0.91798    1.25550    0.80713   1.00
H2       0.88612    1.30514    0.85545   1.00
H2       0.87363    1.33708    0.89395   1.00
H2       0.90488    1.35332    0.85771   1.00
H2       0.89188    1.26902    0.92288   1.00
H2       0.93589    1.27068    0.94860   1.00
H2       0.90192    1.30828    0.95433   1.00
H2       1.08515    1.26688    0.97561   1.00
H2       1.13632    1.26809    0.97632   1.00
H2       1.11133    1.28048    0.93342   1.00
H2       1.13123    1.20125    1.00511   1.00
H2       1.08092    1.19574    0.99778   1.00
H2       1.11401    1.16122    0.97862   1.00
H2       1.06165    1.10202    0.86845   1.00
H2       1.03279    1.14435    0.86768   1.00
H2       1.07343    1.14035    0.83611   1.00
H2       1.15136    1.14416    0.91433   1.00
H2       1.12969    1.10212    0.89463   1.00
H2       1.14286    1.14085    0.86340   1.00
H2       1.08927    1.28656    0.86933   1.00
H2       1.09952    1.27381    0.82037   1.00
H2       1.05605    1.25834    0.84227   1.00
H2       1.16119    1.24044    0.83154   1.00
H2       1.15965    1.25622    0.88053   1.00
H2       1.16806    1.20657    0.86923   1.00
C4       0.72916    1.00281    0.99883   1.00
C4       0.77088    1.00255    0.99951   1.00
C3       0.70636    1.03690    1.00471   1.00
C3       0.79384    1.03553    1.00963   1.00
C3       0.70877    0.96704    0.99253   1.00
C3       0.79114    0.96756    0.98947   1.00
C2       0.64488    1.00057    0.99895   1.00
C2       0.85512    0.99943    1.00105   1.00
C3       0.66538    1.03581    1.00500   1.00
C3       0.83481    1.03414    1.01004   1.00
C3       0.66742    0.96667    0.99219   1.00
C3       0.83238    0.96631    0.99168   1.00
H1       0.71885    1.06355    1.00883   1.00
H1       0.78148    1.06146    1.01725   1.00
C5       0.72980    0.93189    0.98643   1.00
C5       0.77020    0.93392    0.97762   1.00
H1       0.65045    1.06134    1.00969   1.00
H1       0.84990    1.05899    1.01726   1.00
H1       0.65320    0.94100    0.98656   1.00
H1       0.84632    0.94038    0.98683   1.00
O3       0.71039    0.89668    0.98688   1.00
O3       0.78901    0.90261    0.96052   1.00
Si1      0.70753    0.87170    1.02736   1.00
Si1      0.79721    0.90353    0.91362   1.00
C6       0.67462    0.83587    1.01043   1.00
C6       0.75402    0.85159    1.03635   1.00
C6       0.68747    0.89855    1.06649   1.00
C6       0.78307    0.94551    0.88717   1.00
C6       0.84802    0.89777    0.91058   1.00
C6       0.77523    0.86164    0.89351   1.00
C6       0.63806    0.85145    0.98776   1.00
H2       0.69209    0.82045    0.98869   1.00
C6       0.65853    0.80344    1.03851   1.00
H2       0.76642    0.85033    1.00705   1.00
C6       0.78366    0.87572    1.06133   1.00
C6       0.75664    0.80899    1.05261   1.00
H2       0.66169    0.91171    1.05308   1.00
C6       0.67228    0.87487    1.10254   1.00
C6       0.71151    0.93295    1.08501   1.00
C6       0.73929    0.95827    0.88894   1.00
C6       0.80775    0.98382    0.89079   1.00
H2       0.78788    0.93641    0.85703   1.00
H2       0.85949    0.92530    0.92173   1.00
C6       0.86622    0.86539    0.93721   1.00
C6       0.86607    0.89214    0.86905   1.00
H2       0.79625    0.83839    0.89922   1.00
C6       0.73664    0.84769    0.91315   1.00
C6       0.76756    0.86089    0.84846   1.00
H2       0.64654    0.86981    0.96312   1.00
H2       0.61910    0.86863    1.00680   1.00
H2       0.62083    0.82743    0.97575   1.00
H2       0.65392    0.77631    1.02235   1.00
H2       0.67822    0.79697    1.06252   1.00
H2       0.63036    0.81130    1.05117   1.00
H2       0.81328    0.86436    1.05779   1.00
H2       0.78468    0.90620    1.05250   1.00
H2       0.77648    0.87428    1.09233   1.00
H2       0.74138    0.78837    1.03374   1.00
H2       0.78692    0.79896    1.05404   1.00
H2       0.74450    0.80713    1.08202   1.00
H2       0.69486    0.85545    1.11388   1.00
H2       0.66292    0.89395    1.12637   1.00
H2       0.64668    0.85771    1.09512   1.00
H2       0.73098    0.92288    1.10812   1.00
H2       0.72932    0.94860    1.06411   1.00
H2       0.69172    0.95433    1.09808   1.00
H2       0.73312    0.97561    0.91485   1.00
H2       0.73191    0.97632    0.86368   1.00
H2       0.71952    0.93342    0.88867   1.00
H2       0.79875    1.00511    0.86877   1.00
H2       0.80426    0.99778    0.91908   1.00
H2       0.83878    0.97862    0.88599   1.00
H2       0.89798    0.86845    0.93835   1.00
H2       0.85565    0.86768    0.96721   1.00
H2       0.85965    0.83611    0.92657   1.00
H2       0.85584    0.91433    0.84864   1.00
H2       0.89788    0.89463    0.87031   1.00
H2       0.85915    0.86340    0.85714   1.00
H2       0.71344    0.86933    0.91073   1.00
H2       0.72619    0.82037    0.90048   1.00
H2       0.74166    0.84227    0.94395   1.00
H2       0.75956    0.83154    0.83881   1.00
H2       0.74378    0.88053    0.84035   1.00
H2       0.79343    0.86923    0.83194   1.00
C4       1.27084    1.00281    1.00117   1.00
C4       1.22912    1.00255    1.00049   1.00
C3       1.29364    1.03690    0.99529   1.00
C3       1.20616    1.03553    0.99037   1.00
C3       1.29123    0.96704    1.00747   1.00
C3       1.20886    0.96756    1.01053   1.00
C2       1.35512    1.00057    1.00105   1.00
C2       1.14488    0.99943    0.99895   1.00
C3       1.33462    1.03581    0.99500   1.00
C3       1.16519    1.03414    0.98996   1.00
C3       1.33258    0.96667    1.00781   1.00
C3       1.16762    0.96631    1.00832   1.00
H1       1.28115    1.06355    0.99117   1.00
H1       1.21852    1.06146    0.98275   1.00
C5       1.27020    0.93189    1.01357   1.00
C5       1.22980    0.93392    1.02238   1.00
H1       1.34955    1.06134    0.99031   1.00
H1       1.15010    1.05899    0.98274   1.00
H1       1.34680    0.94100    1.01344   1.00
H1       1.15368    0.94038    1.01317   1.00
O3       1.28961    0.89668    1.01312   1.00
O3       1.21099    0.90261    1.03948   1.00
Si1      1.29247    0.87170    0.97264   1.00
Si1      1.20279    0.90353    1.08638   1.00
C6       1.32538    0.83587    0.98957   1.00
C6       1.24598    0.85159    0.96365   1.00
C6       1.31253    0.89855    0.93351   1.00
C6       1.21693    0.94551    1.11283   1.00
C6       1.15198    0.89777    1.08942   1.00
C6       1.22477    0.86164    1.10649   1.00
C6       1.36194    0.85145    1.01224   1.00
H2       1.30791    0.82045    1.01131   1.00
C6       1.34147    0.80344    0.96149   1.00
H2       1.23358    0.85033    0.99295   1.00
C6       1.21634    0.87572    0.93867   1.00
C6       1.24336    0.80899    0.94739   1.00
H2       1.33831    0.91171    0.94692   1.00
C6       1.32772    0.87487    0.89746   1.00
C6       1.28849    0.93295    0.91499   1.00
C6       1.26071    0.95827    1.11106   1.00
C6       1.19225    0.98382    1.10921   1.00
H2       1.21212    0.93641    1.14297   1.00
H2       1.14051    0.92530    1.07827   1.00
C6       1.13378    0.86539    1.06279   1.00
C6       1.13393    0.89214    1.13095   1.00
H2       1.20375    0.83839    1.10078   1.00
C6       1.26336    0.84769    1.08685   1.00
C6       1.23244    0.86089    1.15154   1.00
H2       1.35346    0.86981    1.03688   1.00
H2       1.38090    0.86863    0.99320   1.00
H2       1.37917    0.82743    1.02425   1.00
H2       1.34608    0.77631    0.97765   1.00
H2       1.32178    0.79697    0.93748   1.00
H2       1.36964    0.81130    0.94883   1.00
H2       1.18672    0.86436    0.94221   1.00
H2       1.21532    0.90620    0.94750   1.00
H2       1.22352    0.87428    0.90767   1.00
H2       1.25862    0.78837    0.96626   1.00
H2       1.21308    0.79896    0.94596   1.00
H2       1.25550    0.80713    0.91798   1.00
H2       1.30514    0.85545    0.88612   1.00
H2       1.33708    0.89395    0.87363   1.00
H2       1.35332    0.85771    0.90488   1.00
H2       1.26902    0.92288    0.89188   1.00
H2       1.27068    0.94860    0.93589   1.00
H2       1.30828    0.95433    0.90192   1.00
H2       1.26688    0.97561    1.08515   1.00
H2       1.26809    0.97632    1.13632   1.00
H2       1.28048    0.93342    1.11133   1.00
H2       1.20125    1.00511    1.13123   1.00
H2       1.19574    0.99778    1.08092   1.00
H2       1.16122    0.97862    1.11401   1.00
H2       1.10202    0.86845    1.06165   1.00
H2       1.14435    0.86768    1.03279   1.00
H2       1.14035    0.83611    1.07343   1.00
H2       1.14416    0.91433    1.15136   1.00
H2       1.10212    0.89463    1.12969   1.00
H2       1.14085    0.86340    1.14286   1.00
H2       1.28656    0.86933    1.08927   1.00
H2       1.27381    0.82037    1.09952   1.00
H2       1.25834    0.84227    1.05605   1.00
H2       1.24044    0.83154    1.16119   1.00
H2       1.25622    0.88053    1.15965   1.00
H2       1.20657    0.86923    1.16806   1.00
C4       0.99883    0.72916    1.00281   1.00
C4       0.99951    0.77088    1.00255   1.00
C3       1.00471    0.70636    1.03690   1.00
C3       1.00963    0.79384    1.03553   1.00
C3       0.99253    0.70877    0.96704   1.00
C3       0.98947    0.79114    0.96756   1.00
C2       0.99895    0.64488    1.00057   1.00
C2       1.00105    0.85512    0.99943   1.00
C3       1.00500    0.66538    1.03581   1.00
C3       1.01004    0.83481    1.03414   1.00
C3       0.99219    0.66742    0.96667   1.00
C3       0.99168    0.83238    0.96631   1.00
H1       1.00883    0.71885    1.06355   1.00
H1       1.01725    0.78148    1.06146   1.00
C5       0.98643    0.72980    0.93189   1.00
C5       0.97762    0.77020    0.93392   1.00
H1       1.00969    0.65045    1.06134   1.00
H1       1.01726    0.84990    1.05899   1.00
H1       0.98656    0.65320    0.94100   1.00
H1       0.98683    0.84632    0.94038   1.00
O3       0.98688    0.71039    0.89668   1.00
O3       0.96052    0.78901    0.90261   1.00
Si1      1.02736    0.70753    0.87170   1.00
Si1      0.91362    0.79721    0.90353   1.00
C6       1.01043    0.67462    0.83587   1.00
C6       1.03635    0.75402    0.85159   1.00
C6       1.06649    0.68747    0.89855   1.00
C6       0.88717    0.78307    0.94551   1.00
C6       0.91058    0.84802    0.89777   1.00
C6       0.89351    0.77523    0.86164   1.00
C6       0.98776    0.63806    0.85145   1.00
H2       0.98869    0.69209    0.82045   1.00
C6       1.03851    0.65853    0.80344   1.00
H2       1.00705    0.76642    0.85033   1.00
C6       1.06133    0.78366    0.87572   1.00
C6       1.05261    0.75664    0.80899   1.00
H2       1.05308    0.66169    0.91171   1.00
C6       1.10254    0.67228    0.87487   1.00
C6       1.08501    0.71151    0.93295   1.00
C6       0.88894    0.73929    0.95827   1.00
C6       0.89079    0.80775    0.98382   1.00
H2       0.85703    0.78788    0.93641   1.00
H2       0.92173    0.85949    0.92530   1.00
C6       0.93721    0.86622    0.86539   1.00
C6       0.86905    0.86607    0.89214   1.00
H2       0.89922    0.79625    0.83839   1.00
C6       0.91315    0.73664    0.84769   1.00
C6       0.84846    0.76756    0.86089   1.00
H2       0.96312    0.64654    0.86981   1.00
H2       1.00680    0.61910    0.86863   1.00
H2       0.97575    0.62083    0.82743   1.00
H2       1.02235    0.65392    0.77631   1.00
H2       1.06252    0.67822    0.79697   1.00
H2       1.05117    0.63036    0.81130   1.00
H2       1.05779    0.81328    0.86436   1.00
H2       1.05250    0.78468    0.90620   1.00
H2       1.09233    0.77648    0.87428   1.00
H2       1.03374    0.74138    0.78837   1.00
H2       1.05404    0.78692    0.79896   1.00
H2       1.08202    0.74450    0.80713   1.00
H2       1.11388    0.69486    0.85545   1.00
H2       1.12637    0.66292    0.89395   1.00
H2       1.09512    0.64668    0.85771   1.00
H2       1.10812    0.73098    0.92288   1.00
H2       1.06411    0.72932    0.94860   1.00
H2       1.09808    0.69172    0.95433   1.00
H2       0.91485    0.73312    0.97561   1.00
H2       0.86368    0.73191    0.97632   1.00
H2       0.88867    0.71952    0.93342   1.00
H2       0.86877    0.79875    1.00511   1.00
H2       0.91908    0.80426    0.99778   1.00
H2       0.88599    0.83878    0.97862   1.00
H2       0.93835    0.89798    0.86845   1.00
H2       0.96721    0.85565    0.86768   1.00
H2       0.92657    0.85965    0.83611   1.00
H2       0.84864    0.85584    0.91433   1.00
H2       0.87031    0.89788    0.89463   1.00
H2       0.85714    0.85915    0.86340   1.00
H2       0.91073    0.71344    0.86933   1.00
H2       0.90048    0.72619    0.82037   1.00
H2       0.94395    0.74166    0.84227   1.00
H2       0.83881    0.75956    0.83154   1.00
H2       0.84035    0.74378    0.88053   1.00
H2       0.83194    0.79343    0.86923   1.00
C4       1.00281    0.99883    0.72916   1.00
C4       1.00255    0.99951    0.77088   1.00
C3       1.03690    1.00471    0.70636   1.00
C3       1.03553    1.00963    0.79384   1.00
C3       0.96704    0.99253    0.70877   1.00
C3       0.96756    0.98947    0.79114   1.00
C2       1.00057    0.99895    0.64488   1.00
C2       0.99943    1.00105    0.85512   1.00
C3       1.03581    1.00500    0.66538   1.00
C3       1.03414    1.01004    0.83481   1.00
C3       0.96667    0.99219    0.66742   1.00
C3       0.96631    0.99168    0.83238   1.00
H1       1.06355    1.00883    0.71885   1.00
H1       1.06146    1.01725    0.78148   1.00
C5       0.93189    0.98643    0.72980   1.00
C5       0.93392    0.97762    0.77020   1.00
H1       1.06134    1.00969    0.65045   1.00
H1       1.05899    1.01726    0.84990   1.00
H1       0.94100    0.98656    0.65320   1.00
H1       0.94038    0.98683    0.84632   1.00
O3       0.89668    0.98688    0.71039   1.00
O3       0.90261    0.96052    0.78901   1.00
Si1      0.87170    1.02736    0.70753   1.00
Si1      0.90353    0.91362    0.79721   1.00
C6       0.83587    1.01043    0.67462   1.00
C6       0.85159    1.03635    0.75402   1.00
C6       0.89855    1.06649    0.68747   1.00
C6       0.94551    0.88717    0.78307   1.00
C6       0.89777    0.91058    0.84802   1.00
C6       0.86164    0.89351    0.77523   1.00
C6       0.85145    0.98776    0.63806   1.00
H2       0.82045    0.98869    0.69209   1.00
C6       0.80344    1.03851    0.65853   1.00
H2       0.85033    1.00705    0.76642   1.00
C6       0.87572    1.06133    0.78366   1.00
C6       0.80899    1.05261    0.75664   1.00
H2       0.91171    1.05308    0.66169   1.00
C6       0.87487    1.10254    0.67228   1.00
C6       0.93295    1.08501    0.71151   1.00
C6       0.95827    0.88894    0.73929   1.00
C6       0.98382    0.89079    0.80775   1.00
H2       0.93641    0.85703    0.78788   1.00
H2       0.92530    0.92173    0.85949   1.00
C6       0.86539    0.93721    0.86622   1.00
C6       0.89214    0.86905    0.86607   1.00
H2       0.83839    0.89922    0.79625   1.00
C6       0.84769    0.91315    0.73664   1.00
C6       0.86089    0.84846    0.76756   1.00
H2       0.86981    0.96312    0.64654   1.00
H2       0.86863    1.00680    0.61910   1.00
H2       0.82743    0.97575    0.62083   1.00
H2       0.77631    1.02235    0.65392   1.00
H2       0.79697    1.06252    0.67822   1.00
H2       0.81130    1.05117    0.63036   1.00
H2       0.86436    1.05779    0.81328   1.00
H2       0.90620    1.05250    0.78468   1.00
H2       0.87428    1.09233    0.77648   1.00
H2       0.78837    1.03374    0.74138   1.00
H2       0.79896    1.05404    0.78692   1.00
H2       0.80713    1.08202    0.74450   1.00
H2       0.85545    1.11388    0.69486   1.00
H2       0.89395    1.12637    0.66292   1.00
H2       0.85771    1.09512    0.64668   1.00
H2       0.92288    1.10812    0.73098   1.00
H2       0.94860    1.06411    0.72932   1.00
H2       0.95433    1.09808    0.69172   1.00
H2       0.97561    0.91485    0.73312   1.00
H2       0.97632    0.86368    0.73191   1.00
H2       0.93342    0.88867    0.71952   1.00
H2       1.00511    0.86877    0.79875   1.00
H2       0.99778    0.91908    0.80426   1.00
H2       0.97862    0.88599    0.83878   1.00
H2       0.86845    0.93835    0.89798   1.00
H2       0.86768    0.96721    0.85565   1.00
H2       0.83611    0.92657    0.85965   1.00
H2       0.91433    0.84864    0.85584   1.00
H2       0.89463    0.87031    0.89788   1.00
H2       0.86340    0.85714    0.85915   1.00
H2       0.86933    0.91073    0.71344   1.00
H2       0.82037    0.90048    0.72619   1.00
H2       0.84227    0.94395    0.74166   1.00
H2       0.83154    0.83881    0.75956   1.00
H2       0.88053    0.84035    0.74378   1.00
H2       0.86923    0.83194    0.79343   1.00
C4       0.50281    0.50117    1.27084   1.00
C4       0.50255    0.50049    1.22912   1.00
C3       0.53690    0.49529    1.29364   1.00
C3       0.53553    0.49037    1.20616   1.00
C3       0.46704    0.50747    1.29123   1.00
C3       0.46756    0.51053    1.20886   1.00
C2       0.50057    0.50105    1.35512   1.00
C2       0.49943    0.49895    1.14488   1.00
C3       0.53581    0.49500    1.33462   1.00
C3       0.53414    0.48996    1.16519   1.00
C3       0.46667    0.50781    1.33258   1.00
C3       0.46631    0.50832    1.16762   1.00
H1       0.56355    0.49117    1.28115   1.00
H1       0.56146    0.48275    1.21852   1.00
C5       0.43189    0.51357    1.27020   1.00
C5       0.43392    0.52238    1.22980   1.00
H1       0.56134    0.49031    1.34955   1.00
H1       0.55899    0.48274    1.15010   1.00
H1       0.44100    0.51344    1.34680   1.00
H1       0.44038    0.51317    1.15368   1.00
O3       0.39668    0.51312    1.28961   1.00
O3       0.40261    0.53948    1.21099   1.00
Si1      0.37170    0.47264    1.29247   1.00
Si1      0.40353    0.58638    1.20279   1.00
C6       0.33587    0.48957    1.32538   1.00
C6       0.35159    0.46365    1.24598   1.00
C6       0.39855    0.43351    1.31253   1.00
C6       0.44551    0.61283    1.21693   1.00
C6       0.39777    0.58942    1.15198   1.00
C6       0.36164    0.60649    1.22477   1.00
C6       0.35145    0.51224    1.36194   1.00
H2       0.32045    0.51131    1.30791   1.00
C6       0.30344    0.46149    1.34147   1.00
H2       0.35033    0.49295    1.23358   1.00
C6       0.37572    0.43867    1.21634   1.00
C6       0.30899    0.44739    1.24336   1.00
H2       0.41171    0.44692    1.33831   1.00
C6       0.37487    0.39746    1.32772   1.00
C6       0.43295    0.41499    1.28849   1.00
C6       0.45827    0.61106    1.26071   1.00
C6       0.48382    0.60921    1.19225   1.00
H2       0.43641    0.64297    1.21212   1.00
H2       0.42530    0.57827    1.14051   1.00
C6       0.36539    0.56279    1.13378   1.00
C6       0.39214    0.63095    1.13393   1.00
H2       0.33839    0.60078    1.20375   1.00
C6       0.34769    0.58685    1.26336   1.00
C6       0.36089    0.65154    1.23244   1.00
H2       0.36981    0.53688    1.35346   1.00
H2       0.36863    0.49320    1.38090   1.00
H2       0.32743    0.52425    1.37917   1.00
H2       0.27631    0.47765    1.34608   1.00
H2       0.29697    0.43748    1.32178   1.00
H2       0.31130    0.44883    1.36964   1.00
H2       0.36436    0.44221    1.18672   1.00
H2       0.40620    0.44750    1.21532   1.00
H2       0.37428    0.40767    1.22352   1.00
H2       0.28837    0.46626    1.25862   1.00
H2       0.29896    0.44596    1.21308   1.00
H2       0.30713    0.41798    1.25550   1.00
H2       0.35545    0.38612    1.30514   1.00
H2       0.39395    0.37363    1.33708   1.00
H2       0.35771    0.40488    1.35332   1.00
H2       0.42288    0.39188    1.26902   1.00
H2       0.44860    0.43589    1.27068   1.00
H2       0.45433    0.40192    1.30828   1.00
H2       0.47561    0.58515    1.26688   1.00
H2       0.47632    0.63632    1.26809   1.00
H2       0.43342    0.61133    1.28048   1.00
H2       0.50511    0.63123    1.20125   1.00
H2       0.49778    0.58092    1.19574   1.00
H2       0.47862    0.61401    1.16122   1.00
H2       0.36845    0.56165    1.10202   1.00
H2       0.36768    0.53279    1.14435   1.00
H2       0.33611    0.57343    1.14035   1.00
H2       0.41433    0.65136    1.14416   1.00
H2       0.39463    0.62969    1.10212   1.00
H2       0.36340    0.64286    1.14085   1.00
H2       0.36933    0.58927    1.28656   1.00
H2       0.32037    0.59952    1.27381   1.00
H2       0.34227    0.55605    1.25834   1.00
H2       0.33154    0.66119    1.24044   1.00
H2       0.38053    0.65965    1.25622   1.00
H2       0.36923    0.66806    1.20657   1.00
C4       0.50117    0.77084    1.00281   1.00
C4       0.50049    0.72912    1.00255   1.00
C3       0.49529    0.79364    1.03690   1.00
C3       0.49037    0.70616    1.03553   1.00
C3       0.50747    0.79123    0.96704   1.00
C3       0.51053    0.70886    0.96756   1.00
C2       0.50105    0.85512    1.00057   1.00
C2       0.49895    0.64488    0.99943   1.00
C3       0.49500    0.83462    1.03581   1.00
C3       0.48996    0.66519    1.03414   1.00
C3       0.50781    0.83258    0.96667   1.00
C3       0.50832    0.66762    0.96631   1.00
H1       0.49117    0.78115    1.06355   1.00
H1       0.48275    0.71852    1.06146   1.00
C5       0.51357    0.77020    0.93189   1.00
C5       0.52238    0.72980    0.93392   1.00
H1       0.49031    0.84955    1.06134   1.00
H1       0.48274    0.65010    1.05899   1.00
H1       0.51344    0.84680    0.94100   1.00
H1       0.51317    0.65368    0.94038   1.00
O3       0.51312    0.78961    0.89668   1.00
O3       0.53948    0.71099    0.90261   1.00
Si1      0.47264    0.79247    0.87170   1.00
Si1      0.58638    0.70279    0.90353   1.00
C6       0.48957    0.82538    0.83587   1.00
C6       0.46365    0.74598    0.85159   1.00
C6       0.43351    0.81253    0.89855   1.00
C6       0.61283    0.71693    0.94551   1.00
C6       0.58942    0.65198    0.89777   1.00
C6       0.60649    0.72477    0.86164   1.00
C6       0.51224    0.86194    0.85145   1.00
H2       0.51131    0.80791    0.82045   1.00
C6       0.46149    0.84147    0.80344   1.00
H2       0.49295    0.73358    0.85033   1.00
C6       0.43867    0.71634    0.87572   1.00
C6       0.44739    0.74336    0.80899   1.00
H2       0.44692    0.83831    0.91171   1.00
C6       0.39746    0.82772    0.87487   1.00
C6       0.41499    0.78849    0.93295   1.00
C6       0.61106    0.76071    0.95827   1.00
C6       0.60921    0.69225    0.98382   1.00
H2       0.64297    0.71212    0.93641   1.00
H2       0.57827    0.64051    0.92530   1.00
C6       0.56279    0.63378    0.86539   1.00
C6       0.63095    0.63393    0.89214   1.00
H2       0.60078    0.70375    0.83839   1.00
C6       0.58685    0.76336    0.84769   1.00
C6       0.65154    0.73244    0.86089   1.00
H2       0.53688    0.85346    0.86981   1.00
H2       0.49320    0.88090    0.86863   1.00
H2       0.52425    0.87917    0.82743   1.00
H2       0.47765    0.84608    0.77631   1.00
H2       0.43748    0.82178    0.79697   1.00
H2       0.44883    0.86964    0.81130   1.00
H2       0.44221    0.68672    0.86436   1.00
H2       0.44750    0.71532    0.90620   1.00
H2       0.40767    0.72352    0.87428   1.00
H2       0.46626    0.75862    0.78837   1.00
H2       0.44596    0.71308    0.79896   1.00
H2       0.41798    0.75550    0.80713   1.00
H2       0.38612    0.80514    0.85545   1.00
H2       0.37363    0.83708    0.89395   1.00
H2       0.40488    0.85332    0.85771   1.00
H2       0.39188    0.76902    0.92288   1.00
H2       0.43589    0.77068    0.94860   1.00
H2       0.40192    0.80828    0.95433   1.00
H2       0.58515    0.76688    0.97561   1.00
H2       0.63632    0.76809    0.97632   1.00
H2       0.61133    0.78048    0.93342   1.00
H2       0.63123    0.70125    1.00511   1.00
H2       0.58092    0.69574    0.99778   1.00
H2       0.61401    0.66122    0.97862   1.00
H2       0.56165    0.60202    0.86845   1.00
H2       0.53279    0.64435    0.86768   1.00
H2       0.57343    0.64035    0.83611   1.00
H2       0.65136    0.64416    0.91433   1.00
H2       0.62969    0.60212    0.89463   1.00
H2       0.64286    0.64085    0.86340   1.00
H2       0.58927    0.78656    0.86933   1.00
H2       0.59952    0.77381    0.82037   1.00
H2       0.55605    0.75834    0.84227   1.00
H2       0.66119    0.74044    0.83154   1.00
H2       0.65965    0.75622    0.88053   1.00
H2       0.66806    0.70657    0.86923   1.00
C4       0.22916    0.50281    0.99883   1.00
C4       0.27088    0.50255    0.99951   1.00
C3       0.20636    0.53690    1.00471   1.00
C3       0.29384    0.53553    1.00963   1.00
C3       0.20877    0.46704    0.99253   1.00
C3       0.29114    0.46756    0.98947   1.00
C2       0.14488    0.50057    0.99895   1.00
C2       0.35512    0.49943    1.00105   1.00
C3       0.16538    0.53581    1.00500   1.00
C3       0.33481    0.53414    1.01004   1.00
C3       0.16742    0.46667    0.99219   1.00
C3       0.33238    0.46631    0.99168   1.00
H1       0.21885    0.56355    1.00883   1.00
H1       0.28148    0.56146    1.01725   1.00
C5       0.22980    0.43189    0.98643   1.00
C5       0.27020    0.43392    0.97762   1.00
H1       0.15045    0.56134    1.00969   1.00
H1       0.34990    0.55899    1.01726   1.00
H1       0.15320    0.44100    0.98656   1.00
H1       0.34632    0.44038    0.98683   1.00
O3       0.21039    0.39668    0.98688   1.00
O3       0.28901    0.40261    0.96052   1.00
Si1      0.20753    0.37170    1.02736   1.00
Si1      0.29721    0.40353    0.91362   1.00
C6       0.17462    0.33587    1.01043   1.00
C6       0.25402    0.35159    1.03635   1.00
C6       0.18747    0.39855    1.06649   1.00
C6       0.28307    0.44551    0.88717   1.00
C6       0.34802    0.39777    0.91058   1.00
C6       0.27523    0.36164    0.89351   1.00
C6       0.13806    0.35145    0.98776   1.00
H2       0.19209    0.32045    0.98869   1.00
C6       0.15853    0.30344    1.03851   1.00
H2       0.26642    0.35033    1.00705   1.00
C6       0.28366    0.37572    1.06133   1.00
C6       0.25664    0.30899    1.05261   1.00
H2       0.16169    0.41171    1.05308   1.00
C6       0.17228    0.37487    1.10254   1.00
C6       0.21151    0.43295    1.08501   1.00
C6       0.23929    0.45827    0.88894   1.00
C6       0.30775    0.48382    0.89079   1.00
H2       0.28788    0.43641    0.85703   1.00
H2       0.35949    0.42530    0.92173   1.00
C6       0.36622    0.36539    0.93721   1.00
C6       0.36607    0.39214    0.86905   1.00
H2       0.29625    0.33839    0.89922   1.00
C6       0.23664    0.34769    0.91315   1.00
C6       0.26756    0.36089    0.84846   1.00
H2       0.14654    0.36981    0.96312   1.00
H2       0.11910    0.36863    1.00680   1.00
H2       0.12083    0.32743    0.97575   1.00
H2       0.15392    0.27631    1.02235   1.00
H2       0.17822    0.29697    1.06252   1.00
H2       0.13036    0.31130    1.05117   1.00
H2       0.31328    0.36436    1.05779   1.00
H2       0.28468    0.40620    1.05250   1.00
H2       0.27648    0.37428    1.09233   1.00
H2       0.24138    0.28837    1.03374   1.00
H2       0.28692    0.29896    1.05404   1.00
H2       0.24450    0.30713    1.08202   1.00
H2       0.19486    0.35545    1.11388   1.00
H2       0.16292    0.39395    1.12637   1.00
H2       0.14668    0.35771    1.09512   1.00
H2       0.23098    0.42288    1.10812   1.00
H2       0.22932    0.44860    1.06411   1.00
H2       0.19172    0.45433    1.09808   1.00
H2       0.23312    0.47561    0.91485   1.00
H2       0.23191    0.47632    0.86368   1.00
H2       0.21952    0.43342    0.88867   1.00
H2       0.29875    0.50511    0.86877   1.00
H2       0.30426    0.49778    0.91908   1.00
H2       0.33878    0.47862    0.88599   1.00
H2       0.39798    0.36845    0.93835   1.00
H2       0.35565    0.36768    0.96721   1.00
H2       0.35965    0.33611    0.92657   1.00
H2       0.35584    0.41433    0.84864   1.00
H2       0.39788    0.39463    0.87031   1.00
H2       0.35915    0.36340    0.85714   1.00
H2       0.21344    0.36933    0.91073   1.00
H2       0.22619    0.32037    0.90048   1.00
H2       0.24166    0.34227    0.94395   1.00
H2       0.25956    0.33154    0.83881   1.00
H2       0.24378    0.38053    0.84035   1.00
H2       0.29343    0.36923    0.83194   1.00
C4       0.77084    0.50281    1.00117   1.00
C4       0.72912    0.50255    1.00049   1.00
C3       0.79364    0.53690    0.99529   1.00
C3       0.70616    0.53553    0.99037   1.00
C3       0.79123    0.46704    1.00747   1.00
C3       0.70886    0.46756    1.01053   1.00
C2       0.85512    0.50057    1.00105   1.00
C2       0.64488    0.49943    0.99895   1.00
C3       0.83462    0.53581    0.99500   1.00
C3       0.66519    0.53414    0.98996   1.00
C3       0.83258    0.46667    1.00781   1.00
C3       0.66762    0.46631    1.00832   1.00
H1       0.78115    0.56355    0.99117   1.00
H1       0.71852    0.56146    0.98275   1.00
C5       0.77020    0.43189    1.01357   1.00
C5       0.72980    0.43392    1.02238   1.00
H1       0.84955    0.56134    0.99031   1.00
H1       0.65010    0.55899    0.98274   1.00
H1       0.84680    0.44100    1.01344   1.00
H1       0.65368    0.44038    1.01317   1.00
O3       0.78961    0.39668    1.01312   1.00
O3       0.71099    0.40261    1.03948   1.00
Si1      0.79247    0.37170    0.97264   1.00
Si1      0.70279    0.40353    1.08638   1.00
C6       0.82538    0.33587    0.98957   1.00
C6       0.74598    0.35159    0.96365   1.00
C6       0.81253    0.39855    0.93351   1.00
C6       0.71693    0.44551    1.11283   1.00
C6       0.65198    0.39777    1.08942   1.00
C6       0.72477    0.36164    1.10649   1.00
C6       0.86194    0.35145    1.01224   1.00
H2       0.80791    0.32045    1.01131   1.00
C6       0.84147    0.30344    0.96149   1.00
H2       0.73358    0.35033    0.99295   1.00
C6       0.71634    0.37572    0.93867   1.00
C6       0.74336    0.30899    0.94739   1.00
H2       0.83831    0.41171    0.94692   1.00
C6       0.82772    0.37487    0.89746   1.00
C6       0.78849    0.43295    0.91499   1.00
C6       0.76071    0.45827    1.11106   1.00
C6       0.69225    0.48382    1.10921   1.00
H2       0.71212    0.43641    1.14297   1.00
H2       0.64051    0.42530    1.07827   1.00
C6       0.63378    0.36539    1.06279   1.00
C6       0.63393    0.39214    1.13095   1.00
H2       0.70375    0.33839    1.10078   1.00
C6       0.76336    0.34769    1.08685   1.00
C6       0.73244    0.36089    1.15154   1.00
H2       0.85346    0.36981    1.03688   1.00
H2       0.88090    0.36863    0.99320   1.00
H2       0.87917    0.32743    1.02425   1.00
H2       0.84608    0.27631    0.97765   1.00
H2       0.82178    0.29697    0.93748   1.00
H2       0.86964    0.31130    0.94883   1.00
H2       0.68672    0.36436    0.94221   1.00
H2       0.71532    0.40620    0.94750   1.00
H2       0.72352    0.37428    0.90767   1.00
H2       0.75862    0.28837    0.96626   1.00
H2       0.71308    0.29896    0.94596   1.00
H2       0.75550    0.30713    0.91798   1.00
H2       0.80514    0.35545    0.88612   1.00
H2       0.83708    0.39395    0.87363   1.00
H2       0.85332    0.35771    0.90488   1.00
H2       0.76902    0.42288    0.89188   1.00
H2       0.77068    0.44860    0.93589   1.00
H2       0.80828    0.45433    0.90192   1.00
H2       0.76688    0.47561    1.08515   1.00
H2       0.76809    0.47632    1.13632   1.00
H2       0.78048    0.43342    1.11133   1.00
H2       0.70125    0.50511    1.13123   1.00
H2       0.69574    0.49778    1.08092   1.00
H2       0.66122    0.47862    1.11401   1.00
H2       0.60202    0.36845    1.06165   1.00
H2       0.64435    0.36768    1.03279   1.00
H2       0.64035    0.33611    1.07343   1.00
H2       0.64416    0.41433    1.15136   1.00
H2       0.60212    0.39463    1.12969   1.00
H2       0.64085    0.36340    1.14286   1.00
H2       0.78656    0.36933    1.08927   1.00
H2       0.77381    0.32037    1.09952   1.00
H2       0.75834    0.34227    1.05605   1.00
H2       0.74044    0.33154    1.16119   1.00
H2       0.75622    0.38053    1.15965   1.00
H2       0.70657    0.36923    1.16806   1.00
C4       0.49883    0.22916    1.00281   1.00
C4       0.49951    0.27088    1.00255   1.00
C3       0.50471    0.20636    1.03690   1.00
C3       0.50963    0.29384    1.03553   1.00
C3       0.49253    0.20877    0.96704   1.00
C3       0.48947    0.29114    0.96756   1.00
C2       0.49895    0.14488    1.00057   1.00
C2       0.50105    0.35512    0.99943   1.00
C3       0.50500    0.16538    1.03581   1.00
C3       0.51004    0.33481    1.03414   1.00
C3       0.49219    0.16742    0.96667   1.00
C3       0.49168    0.33238    0.96631   1.00
H1       0.50883    0.21885    1.06355   1.00
H1       0.51725    0.28148    1.06146   1.00
C5       0.48643    0.22980    0.93189   1.00
C5       0.47762    0.27020    0.93392   1.00
H1       0.50969    0.15045    1.06134   1.00
H1       0.51726    0.34990    1.05899   1.00
H1       0.48656    0.15320    0.94100   1.00
H1       0.48683    0.34632    0.94038   1.00
O3       0.48688    0.21039    0.89668   1.00
O3       0.46052    0.28901    0.90261   1.00
Si1      0.52736    0.20753    0.87170   1.00
Si1      0.41362    0.29721    0.90353   1.00
C6       0.51043    0.17462    0.83587   1.00
C6       0.53635    0.25402    0.85159   1.00
C6       0.56649    0.18747    0.89855   1.00
C6       0.38717    0.28307    0.94551   1.00
C6       0.41058    0.34802    0.89777   1.00
C6       0.39351    0.27523    0.86164   1.00
C6       0.48776    0.13806    0.85145   1.00
H2       0.48869    0.19209    0.82045   1.00
C6       0.53851    0.15853    0.80344   1.00
H2       0.50705    0.26642    0.85033   1.00
C6       0.56133    0.28366    0.87572   1.00
C6       0.55261    0.25664    0.80899   1.00
H2       0.55308    0.16169    0.91171   1.00
C6       0.60254    0.17228    0.87487   1.00
C6       0.58501    0.21151    0.93295   1.00
C6       0.38894    0.23929    0.95827   1.00
C6       0.39079    0.30775    0.98382   1.00
H2       0.35703    0.28788    0.93641   1.00
H2       0.42173    0.35949    0.92530   1.00
C6       0.43721    0.36622    0.86539   1.00
C6       0.36905    0.36607    0.89214   1.00
H2       0.39922    0.29625    0.83839   1.00
C6       0.41315    0.23664    0.84769   1.00
C6       0.34846    0.26756    0.86089   1.00
H2       0.46312    0.14654    0.86981   1.00
H2       0.50680    0.11910    0.86863   1.00
H2       0.47575    0.12083    0.82743   1.00
H2       0.52235    0.15392    0.77631   1.00
H2       0.56252    0.17822    0.79697   1.00
H2       0.55117    0.13036    0.81130   1.00
H2       0.55779    0.31328    0.86436   1.00
H2       0.55250    0.28468    0.90620   1.00
H2       0.59233    0.27648    0.87428   1.00
H2       0.53374    0.24138    0.78837   1.00
H2       0.55404    0.28692    0.79896   1.00
H2       0.58202    0.24450    0.80713   1.00
H2       0.61388    0.19486    0.85545   1.00
H2       0.62637    0.16292    0.89395   1.00
H2       0.59512    0.14668    0.85771   1.00
H2       0.60812    0.23098    0.92288   1.00
H2       0.56411    0.22932    0.94860   1.00
H2       0.59808    0.19172    0.95433   1.00
H2       0.41485    0.23312    0.97561   1.00
H2       0.36368    0.23191    0.97632   1.00
H2       0.38867    0.21952    0.93342   1.00
H2       0.36877    0.29875    1.00511   1.00
H2       0.41908    0.30426    0.99778   1.00
H2       0.38599    0.33878    0.97862   1.00
H2       0.43835    0.39798    0.86845   1.00
H2       0.46721    0.35565    0.86768   1.00
H2       0.42657    0.35965    0.83611   1.00
H2       0.34864    0.35584    0.91433   1.00
H2       0.37031    0.39788    0.89463   1.00
H2       0.35714    0.35915    0.86340   1.00
H2       0.41073    0.21344    0.86933   1.00
H2       0.40048    0.22619    0.82037   1.00
H2       0.44395    0.24166    0.84227   1.00
H2       0.33881    0.25956    0.83154   1.00
H2       0.34035    0.24378    0.88053   1.00
H2       0.33194    0.29343    0.86923   1.00
C4       0.50281    0.49883    0.72916   1.00
C4       0.50255    0.49951    0.77088   1.00
C3       0.53690    0.50471    0.70636   1.00
C3       0.53553    0.50963    0.79384   1.00
C3       0.46704    0.49253    0.70877   1.00
C3       0.46756    0.48947    0.79114   1.00
C2       0.50057    0.49895    0.64488   1.00
C2       0.49943    0.50105    0.85512   1.00
C3       0.53581    0.50500    0.66538   1.00
C3       0.53414    0.51004    0.83481   1.00
C3       0.46667    0.49219    0.66742   1.00
C3       0.46631    0.49168    0.83238   1.00
H1       0.56355    0.50883    0.71885   1.00
H1       0.56146    0.51725    0.78148   1.00
C5       0.43189    0.48643    0.72980   1.00
C5       0.43392    0.47762    0.77020   1.00
H1       0.56134    0.50969    0.65045   1.00
H1       0.55899    0.51726    0.84990   1.00
H1       0.44100    0.48656    0.65320   1.00
H1       0.44038    0.48683    0.84632   1.00
O3       0.39668    0.48688    0.71039   1.00
O3       0.40261    0.46052    0.78901   1.00
Si1      0.37170    0.52736    0.70753   1.00
Si1      0.40353    0.41362    0.79721   1.00
C6       0.33587    0.51043    0.67462   1.00
C6       0.35159    0.53635    0.75402   1.00
C6       0.39855    0.56649    0.68747   1.00
C6       0.44551    0.38717    0.78307   1.00
C6       0.39777    0.41058    0.84802   1.00
C6       0.36164    0.39351    0.77523   1.00
C6       0.35145    0.48776    0.63806   1.00
H2       0.32045    0.48869    0.69209   1.00
C6       0.30344    0.53851    0.65853   1.00
H2       0.35033    0.50705    0.76642   1.00
C6       0.37572    0.56133    0.78366   1.00
C6       0.30899    0.55261    0.75664   1.00
H2       0.41171    0.55308    0.66169   1.00
C6       0.37487    0.60254    0.67228   1.00
C6       0.43295    0.58501    0.71151   1.00
C6       0.45827    0.38894    0.73929   1.00
C6       0.48382    0.39079    0.80775   1.00
H2       0.43641    0.35703    0.78788   1.00
H2       0.42530    0.42173    0.85949   1.00
C6       0.36539    0.43721    0.86622   1.00
C6       0.39214    0.36905    0.86607   1.00
H2       0.33839    0.39922    0.79625   1.00
C6       0.34769    0.41315    0.73664   1.00
C6       0.36089    0.34846    0.76756   1.00
H2       0.36981    0.46312    0.64654   1.00
H2       0.36863    0.50680    0.61910   1.00
H2       0.32743    0.47575    0.62083   1.00
H2       0.27631    0.52235    0.65392   1.00
H2       0.29697    0.56252    0.67822   1.00
H2       0.31130    0.55117    0.63036   1.00
H2       0.36436    0.55779    0.81328   1.00
H2       0.40620    0.55250    0.78468   1.00
H2       0.37428    0.59233    0.77648   1.00
H2       0.28837    0.53374    0.74138   1.00
H2       0.29896    0.55404    0.78692   1.00
H2       0.30713    0.58202    0.74450   1.00
H2       0.35545    0.61388    0.69486   1.00
H2       0.39395    0.62637    0.66292   1.00
H2       0.35771    0.59512    0.64668   1.00
H2       0.42288    0.60812    0.73098   1.00
H2       0.44860    0.56411    0.72932   1.00
H2       0.45433    0.59808    0.69172   1.00
H2       0.47561    0.41485    0.73312   1.00
H2       0.47632    0.36368    0.73191   1.00
H2       0.43342    0.38867    0.71952   1.00
H2       0.50511    0.36877    0.79875   1.00
H2       0.49778    0.41908    0.80426   1.00
H2       0.47862    0.38599    0.83878   1.00
H2       0.36845    0.43835    0.89798   1.00
H2       0.36768    0.46721    0.85565   1.00
H2       0.33611    0.42657    0.85965   1.00
H2       0.41433    0.34864    0.85584   1.00
H2       0.39463    0.37031    0.89788   1.00
H2       0.36340    0.35714    0.85915   1.00
H2       0.36933    0.41073    0.71344   1.00
H2       0.32037    0.40048    0.72619   1.00
H2       0.34227    0.44395    0.74166   1.00
H2       0.33154    0.33881    0.75956   1.00
H2       0.38053    0.34035    0.74378   1.00
H2       0.36923    0.33194    0.79343   1.00
C4       0.50281    1.00117    0.77084   1.00
C4       0.50255    1.00049    0.72912   1.00
C3       0.53690    0.99529    0.79364   1.00
C3       0.53553    0.99037    0.70616   1.00
C3       0.46704    1.00747    0.79123   1.00
C3       0.46756    1.01053    0.70886   1.00
C2       0.50057    1.00105    0.85512   1.00
C2       0.49943    0.99895    0.64488   1.00
C3       0.53581    0.99500    0.83462   1.00
C3       0.53414    0.98996    0.66519   1.00
C3       0.46667    1.00781    0.83258   1.00
C3       0.46631    1.00832    0.66762   1.00
H1       0.56355    0.99117    0.78115   1.00
H1       0.56146    0.98275    0.71852   1.00
C5       0.43189    1.01357    0.77020   1.00
C5       0.43392    1.02238    0.72980   1.00
H1       0.56134    0.99031    0.84955   1.00
H1       0.55899    0.98274    0.65010   1.00
H1       0.44100    1.01344    0.84680   1.00
H1       0.44038    1.01317    0.65368   1.00
O3       0.39668    1.01312    0.78961   1.00
O3       0.40261    1.03948    0.71099   1.00
Si1      0.37170    0.97264    0.79247   1.00
Si1      0.40353    1.08638    0.70279   1.00
C6       0.33587    0.98957    0.82538   1.00
C6       0.35159    0.96365    0.74598   1.00
C6       0.39855    0.93351    0.81253   1.00
C6       0.44551    1.11283    0.71693   1.00
C6       0.39777    1.08942    0.65198   1.00
C6       0.36164    1.10649    0.72477   1.00
C6       0.35145    1.01224    0.86194   1.00
H2       0.32045    1.01131    0.80791   1.00
C6       0.30344    0.96149    0.84147   1.00
H2       0.35033    0.99295    0.73358   1.00
C6       0.37572    0.93867    0.71634   1.00
C6       0.30899    0.94739    0.74336   1.00
H2       0.41171    0.94692    0.83831   1.00
C6       0.37487    0.89746    0.82772   1.00
C6       0.43295    0.91499    0.78849   1.00
C6       0.45827    1.11106    0.76071   1.00
C6       0.48382    1.10921    0.69225   1.00
H2       0.43641    1.14297    0.71212   1.00
H2       0.42530    1.07827    0.64051   1.00
C6       0.36539    1.06279    0.63378   1.00
C6       0.39214    1.13095    0.63393   1.00
H2       0.33839    1.10078    0.70375   1.00
C6       0.34769    1.08685    0.76336   1.00
C6       0.36089    1.15154    0.73244   1.00
H2       0.36981    1.03688    0.85346   1.00
H2       0.36863    0.99320    0.88090   1.00
H2       0.32743    1.02425    0.87917   1.00
H2       0.27631    0.97765    0.84608   1.00
H2       0.29697    0.93748    0.82178   1.00
H2       0.31130    0.94883    0.86964   1.00
H2       0.36436    0.94221    0.68672   1.00
H2       0.40620    0.94750    0.71532   1.00
H2       0.37428    0.90767    0.72352   1.00
H2       0.28837    0.96626    0.75862   1.00
H2       0.29896    0.94596    0.71308   1.00
H2       0.30713    0.91798    0.75550   1.00
H2       0.35545    0.88612    0.80514   1.00
H2       0.39395    0.87363    0.83708   1.00
H2       0.35771    0.90488    0.85332   1.00
H2       0.42288    0.89188    0.76902   1.00
H2       0.44860    0.93589    0.77068   1.00
H2       0.45433    0.90192    0.80828   1.00
H2       0.47561    1.08515    0.76688   1.00
H2       0.47632    1.13632    0.76809   1.00
H2       0.43342    1.11133    0.78048   1.00
H2       0.50511    1.13123    0.70125   1.00
H2       0.49778    1.08092    0.69574   1.00
H2       0.47862    1.11401    0.66122   1.00
H2       0.36845    1.06165    0.60202   1.00
H2       0.36768    1.03279    0.64435   1.00
H2       0.33611    1.07343    0.64035   1.00
H2       0.41433    1.15136    0.64416   1.00
H2       0.39463    1.12969    0.60212   1.00
H2       0.36340    1.14286    0.64085   1.00
H2       0.36933    1.08927    0.78656   1.00
H2       0.32037    1.09952    0.77381   1.00
H2       0.34227    1.05605    0.75834   1.00
H2       0.33154    1.16119    0.74044   1.00
H2       0.38053    1.15965    0.75622   1.00
H2       0.36923    1.16806    0.70657   1.00
C4       0.50117    1.27084    0.50281   1.00
C4       0.50049    1.22912    0.50255   1.00
C3       0.49529    1.29364    0.53690   1.00
C3       0.49037    1.20616    0.53553   1.00
C3       0.50747    1.29123    0.46704   1.00
C3       0.51053    1.20886    0.46756   1.00
C2       0.50105    1.35512    0.50057   1.00
C2       0.49895    1.14488    0.49943   1.00
C3       0.49500    1.33462    0.53581   1.00
C3       0.48996    1.16519    0.53414   1.00
C3       0.50781    1.33258    0.46667   1.00
C3       0.50832    1.16762    0.46631   1.00
H1       0.49117    1.28115    0.56355   1.00
H1       0.48275    1.21852    0.56146   1.00
C5       0.51357    1.27020    0.43189   1.00
C5       0.52238    1.22980    0.43392   1.00
H1       0.49031    1.34955    0.56134   1.00
H1       0.48274    1.15010    0.55899   1.00
H1       0.51344    1.34680    0.44100   1.00
H1       0.51317    1.15368    0.44038   1.00
O3       0.51312    1.28961    0.39668   1.00
O3       0.53948    1.21099    0.40261   1.00
Si1      0.47264    1.29247    0.37170   1.00
Si1      0.58638    1.20279    0.40353   1.00
C6       0.48957    1.32538    0.33587   1.00
C6       0.46365    1.24598    0.35159   1.00
C6       0.43351    1.31253    0.39855   1.00
C6       0.61283    1.21693    0.44551   1.00
C6       0.58942    1.15198    0.39777   1.00
C6       0.60649    1.22477    0.36164   1.00
C6       0.51224    1.36194    0.35145   1.00
H2       0.51131    1.30791    0.32045   1.00
C6       0.46149    1.34147    0.30344   1.00
H2       0.49295    1.23358    0.35033   1.00
C6       0.43867    1.21634    0.37572   1.00
C6       0.44739    1.24336    0.30899   1.00
H2       0.44692    1.33831    0.41171   1.00
C6       0.39746    1.32772    0.37487   1.00
C6       0.41499    1.28849    0.43295   1.00
C6       0.61106    1.26071    0.45827   1.00
C6       0.60921    1.19225    0.48382   1.00
H2       0.64297    1.21212    0.43641   1.00
H2       0.57827    1.14051    0.42530   1.00
C6       0.56279    1.13378    0.36539   1.00
C6       0.63095    1.13393    0.39214   1.00
H2       0.60078    1.20375    0.33839   1.00
C6       0.58685    1.26336    0.34769   1.00
C6       0.65154    1.23244    0.36089   1.00
H2       0.53688    1.35346    0.36981   1.00
H2       0.49320    1.38090    0.36863   1.00
H2       0.52425    1.37917    0.32743   1.00
H2       0.47765    1.34608    0.27631   1.00
H2       0.43748    1.32178    0.29697   1.00
H2       0.44883    1.36964    0.31130   1.00
H2       0.44221    1.18672    0.36436   1.00
H2       0.44750    1.21532    0.40620   1.00
H2       0.40767    1.22352    0.37428   1.00
H2       0.46626    1.25862    0.28837   1.00
H2       0.44596    1.21308    0.29896   1.00
H2       0.41798    1.25550    0.30713   1.00
H2       0.38612    1.30514    0.35545   1.00
H2       0.37363    1.33708    0.39395   1.00
H2       0.40488    1.35332    0.35771   1.00
H2       0.39188    1.26902    0.42288   1.00
H2       0.43589    1.27068    0.44860   1.00
H2       0.40192    1.30828    0.45433   1.00
H2       0.58515    1.26688    0.47561   1.00
H2       0.63632    1.26809    0.47632   1.00
H2       0.61133    1.28048    0.43342   1.00
H2       0.63123    1.20125    0.50511   1.00
H2       0.58092    1.19574    0.49778   1.00
H2       0.61401    1.16122    0.47862   1.00
H2       0.56165    1.10202    0.36845   1.00
H2       0.53279    1.14435    0.36768   1.00
H2       0.57343    1.14035    0.33611   1.00
H2       0.65136    1.14416    0.41433   1.00
H2       0.62969    1.10212    0.39463   1.00
H2       0.64286    1.14085    0.36340   1.00
H2       0.58927    1.28656    0.36933   1.00
H2       0.59952    1.27381    0.32037   1.00
H2       0.55605    1.25834    0.34227   1.00
H2       0.66119    1.24044    0.33154   1.00
H2       0.65965    1.25622    0.38053   1.00
H2       0.66806    1.20657    0.36923   1.00
C4       0.22916    1.00281    0.49883   1.00
C4       0.27088    1.00255    0.49951   1.00
C3       0.20636    1.03690    0.50471   1.00
C3       0.29384    1.03553    0.50963   1.00
C3       0.20877    0.96704    0.49253   1.00
C3       0.29114    0.96756    0.48947   1.00
C2       0.14488    1.00057    0.49895   1.00
C2       0.35512    0.99943    0.50105   1.00
C3       0.16538    1.03581    0.50500   1.00
C3       0.33481    1.03414    0.51004   1.00
C3       0.16742    0.96667    0.49219   1.00
C3       0.33238    0.96631    0.49168   1.00
H1       0.21885    1.06355    0.50883   1.00
H1       0.28148    1.06146    0.51725   1.00
C5       0.22980    0.93189    0.48643   1.00
C5       0.27020    0.93392    0.47762   1.00
H1       0.15045    1.06134    0.50969   1.00
H1       0.34990    1.05899    0.51726   1.00
H1       0.15320    0.94100    0.48656   1.00
H1       0.34632    0.94038    0.48683   1.00
O3       0.21039    0.89668    0.48688   1.00
O3       0.28901    0.90261    0.46052   1.00
Si1      0.20753    0.87170    0.52736   1.00
Si1      0.29721    0.90353    0.41362   1.00
C6       0.17462    0.83587    0.51043   1.00
C6       0.25402    0.85159    0.53635   1.00
C6       0.18747    0.89855    0.56649   1.00
C6       0.28307    0.94551    0.38717   1.00
C6       0.34802    0.89777    0.41058   1.00
C6       0.27523    0.86164    0.39351   1.00
C6       0.13806    0.85145    0.48776   1.00
H2       0.19209    0.82045    0.48869   1.00
C6       0.15853    0.80344    0.53851   1.00
H2       0.26642    0.85033    0.50705   1.00
C6       0.28366    0.87572    0.56133   1.00
C6       0.25664    0.80899    0.55261   1.00
H2       0.16169    0.91171    0.55308   1.00
C6       0.17228    0.87487    0.60254   1.00
C6       0.21151    0.93295    0.58501   1.00
C6       0.23929    0.95827    0.38894   1.00
C6       0.30775    0.98382    0.39079   1.00
H2       0.28788    0.93641    0.35703   1.00
H2       0.35949    0.92530    0.42173   1.00
C6       0.36622    0.86539    0.43721   1.00
C6       0.36607    0.89214    0.36905   1.00
H2       0.29625    0.83839    0.39922   1.00
C6       0.23664    0.84769    0.41315   1.00
C6       0.26756    0.86089    0.34846   1.00
H2       0.14654    0.86981    0.46312   1.00
H2       0.11910    0.86863    0.50680   1.00
H2       0.12083    0.82743    0.47575   1.00
H2       0.15392    0.77631    0.52235   1.00
H2       0.17822    0.79697    0.56252   1.00
H2       0.13036    0.81130    0.55117   1.00
H2       0.31328    0.86436    0.55779   1.00
H2       0.28468    0.90620    0.55250   1.00
H2       0.27648    0.87428    0.59233   1.00
H2       0.24138    0.78837    0.53374   1.00
H2       0.28692    0.79896    0.55404   1.00
H2       0.24450    0.80713    0.58202   1.00
H2       0.19486    0.85545    0.61388   1.00
H2       0.16292    0.89395    0.62637   1.00
H2       0.14668    0.85771    0.59512   1.00
H2       0.23098    0.92288    0.60812   1.00
H2       0.22932    0.94860    0.56411   1.00
H2       0.19172    0.95433    0.59808   1.00
H2       0.23312    0.97561    0.41485   1.00
H2       0.23191    0.97632    0.36368   1.00
H2       0.21952    0.93342    0.38867   1.00
H2       0.29875    1.00511    0.36877   1.00
H2       0.30426    0.99778    0.41908   1.00
H2       0.33878    0.97862    0.38599   1.00
H2       0.39798    0.86845    0.43835   1.00
H2       0.35565    0.86768    0.46721   1.00
H2       0.35965    0.83611    0.42657   1.00
H2       0.35584    0.91433    0.34864   1.00
H2       0.39788    0.89463    0.37031   1.00
H2       0.35915    0.86340    0.35714   1.00
H2       0.21344    0.86933    0.41073   1.00
H2       0.22619    0.82037    0.40048   1.00
H2       0.24166    0.84227    0.44395   1.00
H2       0.25956    0.83154    0.33881   1.00
H2       0.24378    0.88053    0.34035   1.00
H2       0.29343    0.86923    0.33194   1.00
C4       0.77084    1.00281    0.50117   1.00
C4       0.72912    1.00255    0.50049   1.00
C3       0.79364    1.03690    0.49529   1.00
C3       0.70616    1.03553    0.49037   1.00
C3       0.79123    0.96704    0.50747   1.00
C3       0.70886    0.96756    0.51053   1.00
C2       0.85512    1.00057    0.50105   1.00
C2       0.64488    0.99943    0.49895   1.00
C3       0.83462    1.03581    0.49500   1.00
C3       0.66519    1.03414    0.48996   1.00
C3       0.83258    0.96667    0.50781   1.00
C3       0.66762    0.96631    0.50832   1.00
H1       0.78115    1.06355    0.49117   1.00
H1       0.71852    1.06146    0.48275   1.00
C5       0.77020    0.93189    0.51357   1.00
C5       0.72980    0.93392    0.52238   1.00
H1       0.84955    1.06134    0.49031   1.00
H1       0.65010    1.05899    0.48274   1.00
H1       0.84680    0.94100    0.51344   1.00
H1       0.65368    0.94038    0.51317   1.00
O3       0.78961    0.89668    0.51312   1.00
O3       0.71099    0.90261    0.53948   1.00
Si1      0.79247    0.87170    0.47264   1.00
Si1      0.70279    0.90353    0.58638   1.00
C6       0.82538    0.83587    0.48957   1.00
C6       0.74598    0.85159    0.46365   1.00
C6       0.81253    0.89855    0.43351   1.00
C6       0.71693    0.94551    0.61283   1.00
C6       0.65198    0.89777    0.58942   1.00
C6       0.72477    0.86164    0.60649   1.00
C6       0.86194    0.85145    0.51224   1.00
H2       0.80791    0.82045    0.51131   1.00
C6       0.84147    0.80344    0.46149   1.00
H2       0.73358    0.85033    0.49295   1.00
C6       0.71634    0.87572    0.43867   1.00
C6       0.74336    0.80899    0.44739   1.00
H2       0.83831    0.91171    0.44692   1.00
C6       0.82772    0.87487    0.39746   1.00
C6       0.78849    0.93295    0.41499   1.00
C6       0.76071    0.95827    0.61106   1.00
C6       0.69225    0.98382    0.60921   1.00
H2       0.71212    0.93641    0.64297   1.00
H2       0.64051    0.92530    0.57827   1.00
C6       0.63378    0.86539    0.56279   1.00
C6       0.63393    0.89214    0.63095   1.00
H2       0.70375    0.83839    0.60078   1.00
C6       0.76336    0.84769    0.58685   1.00
C6       0.73244    0.86089    0.65154   1.00
H2       0.85346    0.86981    0.53688   1.00
H2       0.88090    0.86863    0.49320   1.00
H2       0.87917    0.82743    0.52425   1.00
H2       0.84608    0.77631    0.47765   1.00
H2       0.82178    0.79697    0.43748   1.00
H2       0.86964    0.81130    0.44883   1.00
H2       0.68672    0.86436    0.44221   1.00
H2       0.71532    0.90620    0.44750   1.00
H2       0.72352    0.87428    0.40767   1.00
H2       0.75862    0.78837    0.46626   1.00
H2       0.71308    0.79896    0.44596   1.00
H2       0.75550    0.80713    0.41798   1.00
H2       0.80514    0.85545    0.38612   1.00
H2       0.83708    0.89395    0.37363   1.00
H2       0.85332    0.85771    0.40488   1.00
H2       0.76902    0.92288    0.39188   1.00
H2       0.77068    0.94860    0.43589   1.00
H2       0.80828    0.95433    0.40192   1.00
H2       0.76688    0.97561    0.58515   1.00
H2       0.76809    0.97632    0.63632   1.00
H2       0.78048    0.93342    0.61133   1.00
H2       0.70125    1.00511    0.63123   1.00
H2       0.69574    0.99778    0.58092   1.00
H2       0.66122    0.97862    0.61401   1.00
H2       0.60202    0.86845    0.56165   1.00
H2       0.64435    0.86768    0.53279   1.00
H2       0.64035    0.83611    0.57343   1.00
H2       0.64416    0.91433    0.65136   1.00
H2       0.60212    0.89463    0.62969   1.00
H2       0.64085    0.86340    0.64286   1.00
H2       0.78656    0.86933    0.58927   1.00
H2       0.77381    0.82037    0.59952   1.00
H2       0.75834    0.84227    0.55605   1.00
H2       0.74044    0.83154    0.66119   1.00
H2       0.75622    0.88053    0.65965   1.00
H2       0.70657    0.86923    0.66806   1.00
C4       0.49883    0.72916    0.50281   1.00
C4       0.49951    0.77088    0.50255   1.00
C3       0.50471    0.70636    0.53690   1.00
C3       0.50963    0.79384    0.53553   1.00
C3       0.49253    0.70877    0.46704   1.00
C3       0.48947    0.79114    0.46756   1.00
C2       0.49895    0.64488    0.50057   1.00
C2       0.50105    0.85512    0.49943   1.00
C3       0.50500    0.66538    0.53581   1.00
C3       0.51004    0.83481    0.53414   1.00
C3       0.49219    0.66742    0.46667   1.00
C3       0.49168    0.83238    0.46631   1.00
H1       0.50883    0.71885    0.56355   1.00
H1       0.51725    0.78148    0.56146   1.00
C5       0.48643    0.72980    0.43189   1.00
C5       0.47762    0.77020    0.43392   1.00
H1       0.50969    0.65045    0.56134   1.00
H1       0.51726    0.84990    0.55899   1.00
H1       0.48656    0.65320    0.44100   1.00
H1       0.48683    0.84632    0.44038   1.00
O3       0.48688    0.71039    0.39668   1.00
O3       0.46052    0.78901    0.40261   1.00
Si1      0.52736    0.70753    0.37170   1.00
Si1      0.41362    0.79721    0.40353   1.00
C6       0.51043    0.67462    0.33587   1.00
C6       0.53635    0.75402    0.35159   1.00
C6       0.56649    0.68747    0.39855   1.00
C6       0.38717    0.78307    0.44551   1.00
C6       0.41058    0.84802    0.39777   1.00
C6       0.39351    0.77523    0.36164   1.00
C6       0.48776    0.63806    0.35145   1.00
H2       0.48869    0.69209    0.32045   1.00
C6       0.53851    0.65853    0.30344   1.00
H2       0.50705    0.76642    0.35033   1.00
C6       0.56133    0.78366    0.37572   1.00
C6       0.55261    0.75664    0.30899   1.00
H2       0.55308    0.66169    0.41171   1.00
C6       0.60254    0.67228    0.37487   1.00
C6       0.58501    0.71151    0.43295   1.00
C6       0.38894    0.73929    0.45827   1.00
C6       0.39079    0.80775    0.48382   1.00
H2       0.35703    0.78788    0.43641   1.00
H2       0.42173    0.85949    0.42530   1.00
C6       0.43721    0.86622    0.36539   1.00
C6       0.36905    0.86607    0.39214   1.00
H2       0.39922    0.79625    0.33839   1.00
C6       0.41315    0.73664    0.34769   1.00
C6       0.34846    0.76756    0.36089   1.00
H2       0.46312    0.64654    0.36981   1.00
H2       0.50680    0.61910    0.36863   1.00
H2       0.47575    0.62083    0.32743   1.00
H2       0.52235    0.65392    0.27631   1.00
H2       0.56252    0.67822    0.29697   1.00
H2       0.55117    0.63036    0.31130   1.00
H2       0.55779    0.81328    0.36436   1.00
H2       0.55250    0.78468    0.40620   1.00
H2       0.59233    0.77648    0.37428   1.00
H2       0.53374    0.74138    0.28837   1.00
H2       0.55404    0.78692    0.29896   1.00
H2       0.58202    0.74450    0.30713   1.00
H2       0.61388    0.69486    0.35545   1.00
H2       0.62637    0.66292    0.39395   1.00
H2       0.59512    0.64668    0.35771   1.00
H2       0.60812    0.73098    0.42288   1.00
H2       0.56411    0.72932    0.44860   1.00
H2       0.59808    0.69172    0.45433   1.00
H2       0.41485    0.73312    0.47561   1.00
H2       0.36368    0.73191    0.47632   1.00
H2       0.38867    0.71952    0.43342   1.00
H2       0.36877    0.79875    0.50511   1.00
H2       0.41908    0.80426    0.49778   1.00
H2       0.38599    0.83878    0.47862   1.00
H2       0.43835    0.89798    0.36845   1.00
H2       0.46721    0.85565    0.36768   1.00
H2       0.42657    0.85965    0.33611   1.00
H2       0.34864    0.85584    0.41433   1.00
H2       0.37031    0.89788    0.39463   1.00
H2       0.35714    0.85915    0.36340   1.00
H2       0.41073    0.71344    0.36933   1.00
H2       0.40048    0.72619    0.32037   1.00
H2       0.44395    0.74166    0.34227   1.00
H2       0.33881    0.75956    0.33154   1.00
H2       0.34035    0.74378    0.38053   1.00
H2       0.33194    0.79343    0.36923   1.00
C4       0.50281    0.99883    0.22916   1.00
C4       0.50255    0.99951    0.27088   1.00
C3       0.53690    1.00471    0.20636   1.00
C3       0.53553    1.00963    0.29384   1.00
C3       0.46704    0.99253    0.20877   1.00
C3       0.46756    0.98947    0.29114   1.00
C2       0.50057    0.99895    0.14488   1.00
C2       0.49943    1.00105    0.35512   1.00
C3       0.53581    1.00500    0.16538   1.00
C3       0.53414    1.01004    0.33481   1.00
C3       0.46667    0.99219    0.16742   1.00
C3       0.46631    0.99168    0.33238   1.00
H1       0.56355    1.00883    0.21885   1.00
H1       0.56146    1.01725    0.28148   1.00
C5       0.43189    0.98643    0.22980   1.00
C5       0.43392    0.97762    0.27020   1.00
H1       0.56134    1.00969    0.15045   1.00
H1       0.55899    1.01726    0.34990   1.00
H1       0.44100    0.98656    0.15320   1.00
H1       0.44038    0.98683    0.34632   1.00
O3       0.39668    0.98688    0.21039   1.00
O3       0.40261    0.96052    0.28901   1.00
Si1      0.37170    1.02736    0.20753   1.00
Si1      0.40353    0.91362    0.29721   1.00
C6       0.33587    1.01043    0.17462   1.00
C6       0.35159    1.03635    0.25402   1.00
C6       0.39855    1.06649    0.18747   1.00
C6       0.44551    0.88717    0.28307   1.00
C6       0.39777    0.91058    0.34802   1.00
C6       0.36164    0.89351    0.27523   1.00
C6       0.35145    0.98776    0.13806   1.00
H2       0.32045    0.98869    0.19209   1.00
C6       0.30344    1.03851    0.15853   1.00
H2       0.35033    1.00705    0.26642   1.00
C6       0.37572    1.06133    0.28366   1.00
C6       0.30899    1.05261    0.25664   1.00
H2       0.41171    1.05308    0.16169   1.00
C6       0.37487    1.10254    0.17228   1.00
C6       0.43295    1.08501    0.21151   1.00
C6       0.45827    0.88894    0.23929   1.00
C6       0.48382    0.89079    0.30775   1.00
H2       0.43641    0.85703    0.28788   1.00
H2       0.42530    0.92173    0.35949   1.00
C6       0.36539    0.93721    0.36622   1.00
C6       0.39214    0.86905    0.36607   1.00
H2       0.33839    0.89922    0.29625   1.00
C6       0.34769    0.91315    0.23664   1.00
C6       0.36089    0.84846    0.26756   1.00
H2       0.36981    0.96312    0.14654   1.00
H2       0.36863    1.00680    0.11910   1.00
H2       0.32743    0.97575    0.12083   1.00
H2       0.27631    1.02235    0.15392   1.00
H2       0.29697    1.06252    0.17822   1.00
H2       0.31130    1.05117    0.13036   1.00
H2       0.36436    1.05779    0.31328   1.00
H2       0.40620    1.05250    0.28468   1.00
H2       0.37428    1.09233    0.27648   1.00
H2       0.28837    1.03374    0.24138   1.00
H2       0.29896    1.05404    0.28692   1.00
H2       0.30713    1.08202    0.24450   1.00
H2       0.35545    1.11388    0.19486   1.00
H2       0.39395    1.12637    0.16292   1.00
H2       0.35771    1.09512    0.14668   1.00
H2       0.42288    1.10812    0.23098   1.00
H2       0.44860    1.06411    0.22932   1.00
H2       0.45433    1.09808    0.19172   1.00
H2       0.47561    0.91485    0.23312   1.00
H2       0.47632    0.86368    0.23191   1.00
H2       0.43342    0.88867    0.21952   1.00
H2       0.50511    0.86877    0.29875   1.00
H2       0.49778    0.91908    0.30426   1.00
H2       0.47862    0.88599    0.33878   1.00
H2       0.36845    0.93835    0.39798   1.00
H2       0.36768    0.96721    0.35565   1.00
H2       0.33611    0.92657    0.35965   1.00
H2       0.41433    0.84864    0.35584   1.00
H2       0.39463    0.87031    0.39788   1.00
H2       0.36340    0.85714    0.35915   1.00
H2       0.36933    0.91073    0.21344   1.00
H2       0.32037    0.90048    0.22619   1.00
H2       0.34227    0.94395    0.24166   1.00
H2       0.33154    0.83881    0.25956   1.00
H2       0.38053    0.84035    0.24378   1.00
H2       0.36923    0.83194    0.29343   1.00
C4       1.00281    0.50117    0.77084   1.00
C4       1.00255    0.50049    0.72912   1.00
C3       1.03690    0.49529    0.79364   1.00
C3       1.03553    0.49037    0.70616   1.00
C3       0.96704    0.50747    0.79123   1.00
C3       0.96756    0.51053    0.70886   1.00
C2       1.00057    0.50105    0.85512   1.00
C2       0.99943    0.49895    0.64488   1.00
C3       1.03581    0.49500    0.83462   1.00
C3       1.03414    0.48996    0.66519   1.00
C3       0.96667    0.50781    0.83258   1.00
C3       0.96631    0.50832    0.66762   1.00
H1       1.06355    0.49117    0.78115   1.00
H1       1.06146    0.48275    0.71852   1.00
C5       0.93189    0.51357    0.77020   1.00
C5       0.93392    0.52238    0.72980   1.00
H1       1.06134    0.49031    0.84955   1.00
H1       1.05899    0.48274    0.65010   1.00
H1       0.94100    0.51344    0.84680   1.00
H1       0.94038    0.51317    0.65368   1.00
O3       0.89668    0.51312    0.78961   1.00
O3       0.90261    0.53948    0.71099   1.00
Si1      0.87170    0.47264    0.79247   1.00
Si1      0.90353    0.58638    0.70279   1.00
C6       0.83587    0.48957    0.82538   1.00
C6       0.85159    0.46365    0.74598   1.00
C6       0.89855    0.43351    0.81253   1.00
C6       0.94551    0.61283    0.71693   1.00
C6       0.89777    0.58942    0.65198   1.00
C6       0.86164    0.60649    0.72477   1.00
C6       0.85145    0.51224    0.86194   1.00
H2       0.82045    0.51131    0.80791   1.00
C6       0.80344    0.46149    0.84147   1.00
H2       0.85033    0.49295    0.73358   1.00
C6       0.87572    0.43867    0.71634   1.00
C6       0.80899    0.44739    0.74336   1.00
H2       0.91171    0.44692    0.83831   1.00
C6       0.87487    0.39746    0.82772   1.00
C6       0.93295    0.41499    0.78849   1.00
C6       0.95827    0.61106    0.76071   1.00
C6       0.98382    0.60921    0.69225   1.00
H2       0.93641    0.64297    0.71212   1.00
H2       0.92530    0.57827    0.64051   1.00
C6       0.86539    0.56279    0.63378   1.00
C6       0.89214    0.63095    0.63393   1.00
H2       0.83839    0.60078    0.70375   1.00
C6       0.84769    0.58685    0.76336   1.00
C6       0.86089    0.65154    0.73244   1.00
H2       0.86981    0.53688    0.85346   1.00
H2       0.86863    0.49320    0.88090   1.00
H2       0.82743    0.52425    0.87917   1.00
H2       0.77631    0.47765    0.84608   1.00
H2       0.79697    0.43748    0.82178   1.00
H2       0.81130    0.44883    0.86964   1.00
H2       0.86436    0.44221    0.68672   1.00
H2       0.90620    0.44750    0.71532   1.00
H2       0.87428    0.40767    0.72352   1.00
H2       0.78837    0.46626    0.75862   1.00
H2       0.79896    0.44596    0.71308   1.00
H2       0.80713    0.41798    0.75550   1.00
H2       0.85545    0.38612    0.80514   1.00
H2       0.89395    0.37363    0.83708   1.00
H2       0.85771    0.40488    0.85332   1.00
H2       0.92288    0.39188    0.76902   1.00
H2       0.94860    0.43589    0.77068   1.00
H2       0.95433    0.40192    0.80828   1.00
H2       0.97561    0.58515    0.76688   1.00
H2       0.97632    0.63632    0.76809   1.00
H2       0.93342    0.61133    0.78048   1.00
H2       1.00511    0.63123    0.70125   1.00
H2       0.99778    0.58092    0.69574   1.00
H2       0.97862    0.61401    0.66122   1.00
H2       0.86845    0.56165    0.60202   1.00
H2       0.86768    0.53279    0.64435   1.00
H2       0.83611    0.57343    0.64035   1.00
H2       0.91433    0.65136    0.64416   1.00
H2       0.89463    0.62969    0.60212   1.00
H2       0.86340    0.64286    0.64085   1.00
H2       0.86933    0.58927    0.78656   1.00
H2       0.82037    0.59952    0.77381   1.00
H2       0.84227    0.55605    0.75834   1.00
H2       0.83154    0.66119    0.74044   1.00
H2       0.88053    0.65965    0.75622   1.00
H2       0.86923    0.66806    0.70657   1.00
C4       1.00117    0.77084    0.50281   1.00
C4       1.00049    0.72912    0.50255   1.00
C3       0.99529    0.79364    0.53690   1.00
C3       0.99037    0.70616    0.53553   1.00
C3       1.00747    0.79123    0.46704   1.00
C3       1.01053    0.70886    0.46756   1.00
C2       1.00105    0.85512    0.50057   1.00
C2       0.99895    0.64488    0.49943   1.00
C3       0.99500    0.83462    0.53581   1.00
C3       0.98996    0.66519    0.53414   1.00
C3       1.00781    0.83258    0.46667   1.00
C3       1.00832    0.66762    0.46631   1.00
H1       0.99117    0.78115    0.56355   1.00
H1       0.98275    0.71852    0.56146   1.00
C5       1.01357    0.77020    0.43189   1.00
C5       1.02238    0.72980    0.43392   1.00
H1       0.99031    0.84955    0.56134   1.00
H1       0.98274    0.65010    0.55899   1.00
H1       1.01344    0.84680    0.44100   1.00
H1       1.01317    0.65368    0.44038   1.00
O3       1.01312    0.78961    0.39668   1.00
O3       1.03948    0.71099    0.40261   1.00
Si1      0.97264    0.79247    0.37170   1.00
Si1      1.08638    0.70279    0.40353   1.00
C6       0.98957    0.82538    0.33587   1.00
C6       0.96365    0.74598    0.35159   1.00
C6       0.93351    0.81253    0.39855   1.00
C6       1.11283    0.71693    0.44551   1.00
C6       1.08942    0.65198    0.39777   1.00
C6       1.10649    0.72477    0.36164   1.00
C6       1.01224    0.86194    0.35145   1.00
H2       1.01131    0.80791    0.32045   1.00
C6       0.96149    0.84147    0.30344   1.00
H2       0.99295    0.73358    0.35033   1.00
C6       0.93867    0.71634    0.37572   1.00
C6       0.94739    0.74336    0.30899   1.00
H2       0.94692    0.83831    0.41171   1.00
C6       0.89746    0.82772    0.37487   1.00
C6       0.91499    0.78849    0.43295   1.00
C6       1.11106    0.76071    0.45827   1.00
C6       1.10921    0.69225    0.48382   1.00
H2       1.14297    0.71212    0.43641   1.00
H2       1.07827    0.64051    0.42530   1.00
C6       1.06279    0.63378    0.36539   1.00
C6       1.13095    0.63393    0.39214   1.00
H2       1.10078    0.70375    0.33839   1.00
C6       1.08685    0.76336    0.34769   1.00
C6       1.15154    0.73244    0.36089   1.00
H2       1.03688    0.85346    0.36981   1.00
H2       0.99320    0.88090    0.36863   1.00
H2       1.02425    0.87917    0.32743   1.00
H2       0.97765    0.84608    0.27631   1.00
H2       0.93748    0.82178    0.29697   1.00
H2       0.94883    0.86964    0.31130   1.00
H2       0.94221    0.68672    0.36436   1.00
H2       0.94750    0.71532    0.40620   1.00
H2       0.90767    0.72352    0.37428   1.00
H2       0.96626    0.75862    0.28837   1.00
H2       0.94596    0.71308    0.29896   1.00
H2       0.91798    0.75550    0.30713   1.00
H2       0.88612    0.80514    0.35545   1.00
H2       0.87363    0.83708    0.39395   1.00
H2       0.90488    0.85332    0.35771   1.00
H2       0.89188    0.76902    0.42288   1.00
H2       0.93589    0.77068    0.44860   1.00
H2       0.90192    0.80828    0.45433   1.00
H2       1.08515    0.76688    0.47561   1.00
H2       1.13632    0.76809    0.47632   1.00
H2       1.11133    0.78048    0.43342   1.00
H2       1.13123    0.70125    0.50511   1.00
H2       1.08092    0.69574    0.49778   1.00
H2       1.11401    0.66122    0.47862   1.00
H2       1.06165    0.60202    0.36845   1.00
H2       1.03279    0.64435    0.36768   1.00
H2       1.07343    0.64035    0.33611   1.00
H2       1.15136    0.64416    0.41433   1.00
H2       1.12969    0.60212    0.39463   1.00
H2       1.14286    0.64085    0.36340   1.00
H2       1.08927    0.78656    0.36933   1.00
H2       1.09952    0.77381    0.32037   1.00
H2       1.05605    0.75834    0.34227   1.00
H2       1.16119    0.74044    0.33154   1.00
H2       1.15965    0.75622    0.38053   1.00
H2       1.16806    0.70657    0.36923   1.00
C4       0.72916    0.50281    0.49883   1.00
C4       0.77088    0.50255    0.49951   1.00
C3       0.70636    0.53690    0.50471   1.00
C3       0.79384    0.53553    0.50963   1.00
C3       0.70877    0.46704    0.49253   1.00
C3       0.79114    0.46756    0.48947   1.00
C2       0.64488    0.50057    0.49895   1.00
C2       0.85512    0.49943    0.50105   1.00
C3       0.66538    0.53581    0.50500   1.00
C3       0.83481    0.53414    0.51004   1.00
C3       0.66742    0.46667    0.49219   1.00
C3       0.83238    0.46631    0.49168   1.00
H1       0.71885    0.56355    0.50883   1.00
H1       0.78148    0.56146    0.51725   1.00
C5       0.72980    0.43189    0.48643   1.00
C5       0.77020    0.43392    0.47762   1.00
H1       0.65045    0.56134    0.50969   1.00
H1       0.84990    0.55899    0.51726   1.00
H1       0.65320    0.44100    0.48656   1.00
H1       0.84632    0.44038    0.48683   1.00
O3       0.71039    0.39668    0.48688   1.00
O3       0.78901    0.40261    0.46052   1.00
Si1      0.70753    0.37170    0.52736   1.00
Si1      0.79721    0.40353    0.41362   1.00
C6       0.67462    0.33587    0.51043   1.00
C6       0.75402    0.35159    0.53635   1.00
C6       0.68747    0.39855    0.56649   1.00
C6       0.78307    0.44551    0.38717   1.00
C6       0.84802    0.39777    0.41058   1.00
C6       0.77523    0.36164    0.39351   1.00
C6       0.63806    0.35145    0.48776   1.00
H2       0.69209    0.32045    0.48869   1.00
C6       0.65853    0.30344    0.53851   1.00
H2       0.76642    0.35033    0.50705   1.00
C6       0.78366    0.37572    0.56133   1.00
C6       0.75664    0.30899    0.55261   1.00
H2       0.66169    0.41171    0.55308   1.00
C6       0.67228    0.37487    0.60254   1.00
C6       0.71151    0.43295    0.58501   1.00
C6       0.73929    0.45827    0.38894   1.00
C6       0.80775    0.48382    0.39079   1.00
H2       0.78788    0.43641    0.35703   1.00
H2       0.85949    0.42530    0.42173   1.00
C6       0.86622    0.36539    0.43721   1.00
C6       0.86607    0.39214    0.36905   1.00
H2       0.79625    0.33839    0.39922   1.00
C6       0.73664    0.34769    0.41315   1.00
C6       0.76756    0.36089    0.34846   1.00
H2       0.64654    0.36981    0.46312   1.00
H2       0.61910    0.36863    0.50680   1.00
H2       0.62083    0.32743    0.47575   1.00
H2       0.65392    0.27631    0.52235   1.00
H2       0.67822    0.29697    0.56252   1.00
H2       0.63036    0.31130    0.55117   1.00
H2       0.81328    0.36436    0.55779   1.00
H2       0.78468    0.40620    0.55250   1.00
H2       0.77648    0.37428    0.59233   1.00
H2       0.74138    0.28837    0.53374   1.00
H2       0.78692    0.29896    0.55404   1.00
H2       0.74450    0.30713    0.58202   1.00
H2       0.69486    0.35545    0.61388   1.00
H2       0.66292    0.39395    0.62637   1.00
H2       0.64668    0.35771    0.59512   1.00
H2       0.73098    0.42288    0.60812   1.00
H2       0.72932    0.44860    0.56411   1.00
H2       0.69172    0.45433    0.59808   1.00
H2       0.73312    0.47561    0.41485   1.00
H2       0.73191    0.47632    0.36368   1.00
H2       0.71952    0.43342    0.38867   1.00
H2       0.79875    0.50511    0.36877   1.00
H2       0.80426    0.49778    0.41908   1.00
H2       0.83878    0.47862    0.38599   1.00
H2       0.89798    0.36845    0.43835   1.00
H2       0.85565    0.36768    0.46721   1.00
H2       0.85965    0.33611    0.42657   1.00
H2       0.85584    0.41433    0.34864   1.00
H2       0.89788    0.39463    0.37031   1.00
H2       0.85915    0.36340    0.35714   1.00
H2       0.71344    0.36933    0.41073   1.00
H2       0.72619    0.32037    0.40048   1.00
H2       0.74166    0.34227    0.44395   1.00
H2       0.75956    0.33154    0.33881   1.00
H2       0.74378    0.38053    0.34035   1.00
H2       0.79343    0.36923    0.33194   1.00
C4       1.27084    0.50281    0.50117   1.00
C4       1.22912    0.50255    0.50049   1.00
C3       1.29364    0.53690    0.49529   1.00
C3       1.20616    0.53553    0.49037   1.00
C3       1.29123    0.46704    0.50747   1.00
C3       1.20886    0.46756    0.51053   1.00
C2       1.35512    0.50057    0.50105   1.00
C2       1.14488    0.49943    0.49895   1.00
C3       1.33462    0.53581    0.49500   1.00
C3       1.16519    0.53414    0.48996   1.00
C3       1.33258    0.46667    0.50781   1.00
C3       1.16762    0.46631    0.50832   1.00
H1       1.28115    0.56355    0.49117   1.00
H1       1.21852    0.56146    0.48275   1.00
C5       1.27020    0.43189    0.51357   1.00
C5       1.22980    0.43392    0.52238   1.00
H1       1.34955    0.56134    0.49031   1.00
H1       1.15010    0.55899    0.48274   1.00
H1       1.34680    0.44100    0.51344   1.00
H1       1.15368    0.44038    0.51317   1.00
O3       1.28961    0.39668    0.51312   1.00
O3       1.21099    0.40261    0.53948   1.00
Si1      1.29247    0.37170    0.47264   1.00
Si1      1.20279    0.40353    0.58638   1.00
C6       1.32538    0.33587    0.48957   1.00
C6       1.24598    0.35159    0.46365   1.00
C6       1.31253    0.39855    0.43351   1.00
C6       1.21693    0.44551    0.61283   1.00
C6       1.15198    0.39777    0.58942   1.00
C6       1.22477    0.36164    0.60649   1.00
C6       1.36194    0.35145    0.51224   1.00
H2       1.30791    0.32045    0.51131   1.00
C6       1.34147    0.30344    0.46149   1.00
H2       1.23358    0.35033    0.49295   1.00
C6       1.21634    0.37572    0.43867   1.00
C6       1.24336    0.30899    0.44739   1.00
H2       1.33831    0.41171    0.44692   1.00
C6       1.32772    0.37487    0.39746   1.00
C6       1.28849    0.43295    0.41499   1.00
C6       1.26071    0.45827    0.61106   1.00
C6       1.19225    0.48382    0.60921   1.00
H2       1.21212    0.43641    0.64297   1.00
H2       1.14051    0.42530    0.57827   1.00
C6       1.13378    0.36539    0.56279   1.00
C6       1.13393    0.39214    0.63095   1.00
H2       1.20375    0.33839    0.60078   1.00
C6       1.26336    0.34769    0.58685   1.00
C6       1.23244    0.36089    0.65154   1.00
H2       1.35346    0.36981    0.53688   1.00
H2       1.38090    0.36863    0.49320   1.00
H2       1.37917    0.32743    0.52425   1.00
H2       1.34608    0.27631    0.47765   1.00
H2       1.32178    0.29697    0.43748   1.00
H2       1.36964    0.31130    0.44883   1.00
H2       1.18672    0.36436    0.44221   1.00
H2       1.21532    0.40620    0.44750   1.00
H2       1.22352    0.37428    0.40767   1.00
H2       1.25862    0.28837    0.46626   1.00
H2       1.21308    0.29896    0.44596   1.00
H2       1.25550    0.30713    0.41798   1.00
H2       1.30514    0.35545    0.38612   1.00
H2       1.33708    0.39395    0.37363   1.00
H2       1.35332    0.35771    0.40488   1.00
H2       1.26902    0.42288    0.39188   1.00
H2       1.27068    0.44860    0.43589   1.00
H2       1.30828    0.45433    0.40192   1.00
H2       1.26688    0.47561    0.58515   1.00
H2       1.26809    0.47632    0.63632   1.00
H2       1.28048    0.43342    0.61133   1.00
H2       1.20125    0.50511    0.63123   1.00
H2       1.19574    0.49778    0.58092   1.00
H2       1.16122    0.47862    0.61401   1.00
H2       1.10202    0.36845    0.56165   1.00
H2       1.14435    0.36768    0.53279   1.00
H2       1.14035    0.33611    0.57343   1.00
H2       1.14416    0.41433    0.65136   1.00
H2       1.10212    0.39463    0.62969   1.00
H2       1.14085    0.36340    0.64286   1.00
H2       1.28656    0.36933    0.58927   1.00
H2       1.27381    0.32037    0.59952   1.00
H2       1.25834    0.34227    0.55605   1.00
H2       1.24044    0.33154    0.66119   1.00
H2       1.25622    0.38053    0.65965   1.00
H2       1.20657    0.36923    0.66806   1.00
C4       0.99883    0.22916    0.50281   1.00
C4       0.99951    0.27088    0.50255   1.00
C3       1.00471    0.20636    0.53690   1.00
C3       1.00963    0.29384    0.53553   1.00
C3       0.99253    0.20877    0.46704   1.00
C3       0.98947    0.29114    0.46756   1.00
C2       0.99895    0.14488    0.50057   1.00
C2       1.00105    0.35512    0.49943   1.00
C3       1.00500    0.16538    0.53581   1.00
C3       1.01004    0.33481    0.53414   1.00
C3       0.99219    0.16742    0.46667   1.00
C3       0.99168    0.33238    0.46631   1.00
H1       1.00883    0.21885    0.56355   1.00
H1       1.01725    0.28148    0.56146   1.00
C5       0.98643    0.22980    0.43189   1.00
C5       0.97762    0.27020    0.43392   1.00
H1       1.00969    0.15045    0.56134   1.00
H1       1.01726    0.34990    0.55899   1.00
H1       0.98656    0.15320    0.44100   1.00
H1       0.98683    0.34632    0.44038   1.00
O3       0.98688    0.21039    0.39668   1.00
O3       0.96052    0.28901    0.40261   1.00
Si1      1.02736    0.20753    0.37170   1.00
Si1      0.91362    0.29721    0.40353   1.00
C6       1.01043    0.17462    0.33587   1.00
C6       1.03635    0.25402    0.35159   1.00
C6       1.06649    0.18747    0.39855   1.00
C6       0.88717    0.28307    0.44551   1.00
C6       0.91058    0.34802    0.39777   1.00
C6       0.89351    0.27523    0.36164   1.00
C6       0.98776    0.13806    0.35145   1.00
H2       0.98869    0.19209    0.32045   1.00
C6       1.03851    0.15853    0.30344   1.00
H2       1.00705    0.26642    0.35033   1.00
C6       1.06133    0.28366    0.37572   1.00
C6       1.05261    0.25664    0.30899   1.00
H2       1.05308    0.16169    0.41171   1.00
C6       1.10254    0.17228    0.37487   1.00
C6       1.08501    0.21151    0.43295   1.00
C6       0.88894    0.23929    0.45827   1.00
C6       0.89079    0.30775    0.48382   1.00
H2       0.85703    0.28788    0.43641   1.00
H2       0.92173    0.35949    0.42530   1.00
C6       0.93721    0.36622    0.36539   1.00
C6       0.86905    0.36607    0.39214   1.00
H2       0.89922    0.29625    0.33839   1.00
C6       0.91315    0.23664    0.34769   1.00
C6       0.84846    0.26756    0.36089   1.00
H2       0.96312    0.14654    0.36981   1.00
H2       1.00680    0.11910    0.36863   1.00
H2       0.97575    0.12083    0.32743   1.00
H2       1.02235    0.15392    0.27631   1.00
H2       1.06252    0.17822    0.29697   1.00
H2       1.05117    0.13036    0.31130   1.00
H2       1.05779    0.31328    0.36436   1.00
H2       1.05250    0.28468    0.40620   1.00
H2       1.09233    0.27648    0.37428   1.00
H2       1.03374    0.24138    0.28837   1.00
H2       1.05404    0.28692    0.29896   1.00
H2       1.08202    0.24450    0.30713   1.00
H2       1.11388    0.19486    0.35545   1.00
H2       1.12637    0.16292    0.39395   1.00
H2       1.09512    0.14668    0.35771   1.00
H2       1.10812    0.23098    0.42288   1.00
H2       1.06411    0.22932    0.44860   1.00
H2       1.09808    0.19172    0.45433   1.00
H2       0.91485    0.23312    0.47561   1.00
H2       0.86368    0.23191    0.47632   1.00
H2       0.88867    0.21952    0.43342   1.00
H2       0.86877    0.29875    0.50511   1.00
H2       0.91908    0.30426    0.49778   1.00
H2       0.88599    0.33878    0.47862   1.00
H2       0.93835    0.39798    0.36845   1.00
H2       0.96721    0.35565    0.36768   1.00
H2       0.92657    0.35965    0.33611   1.00
H2       0.84864    0.35584    0.41433   1.00
H2       0.87031    0.39788    0.39463   1.00
H2       0.85714    0.35915    0.36340   1.00
H2       0.91073    0.21344    0.36933   1.00
H2       0.90048    0.22619    0.32037   1.00
H2       0.94395    0.24166    0.34227   1.00
H2       0.83881    0.25956    0.33154   1.00
H2       0.84035    0.24378    0.38053   1.00
H2       0.83194    0.29343    0.36923   1.00
C4       1.00281    0.49883    0.22916   1.00
C4       1.00255    0.49951    0.27088   1.00
C3       1.03690    0.50471    0.20636   1.00
C3       1.03553    0.50963    0.29384   1.00
C3       0.96704    0.49253    0.20877   1.00
C3       0.96756    0.48947    0.29114   1.00
C2       1.00057    0.49895    0.14488   1.00
C2       0.99943    0.50105    0.35512   1.00
C3       1.03581    0.50500    0.16538   1.00
C3       1.03414    0.51004    0.33481   1.00
C3       0.96667    0.49219    0.16742   1.00
C3       0.96631    0.49168    0.33238   1.00
H1       1.06355    0.50883    0.21885   1.00
H1       1.06146    0.51725    0.28148   1.00
C5       0.93189    0.48643    0.22980   1.00
C5       0.93392    0.47762    0.27020   1.00
H1       1.06134    0.50969    0.15045   1.00
H1       1.05899    0.51726    0.34990   1.00
H1       0.94100    0.48656    0.15320   1.00
H1       0.94038    0.48683    0.34632   1.00
O3       0.89668    0.48688    0.21039   1.00
O3       0.90261    0.46052    0.28901   1.00
Si1      0.87170    0.52736    0.20753   1.00
Si1      0.90353    0.41362    0.29721   1.00
C6       0.83587    0.51043    0.17462   1.00
C6       0.85159    0.53635    0.25402   1.00
C6       0.89855    0.56649    0.18747   1.00
C6       0.94551    0.38717    0.28307   1.00
C6       0.89777    0.41058    0.34802   1.00
C6       0.86164    0.39351    0.27523   1.00
C6       0.85145    0.48776    0.13806   1.00
H2       0.82045    0.48869    0.19209   1.00
C6       0.80344    0.53851    0.15853   1.00
H2       0.85033    0.50705    0.26642   1.00
C6       0.87572    0.56133    0.28366   1.00
C6       0.80899    0.55261    0.25664   1.00
H2       0.91171    0.55308    0.16169   1.00
C6       0.87487    0.60254    0.17228   1.00
C6       0.93295    0.58501    0.21151   1.00
C6       0.95827    0.38894    0.23929   1.00
C6       0.98382    0.39079    0.30775   1.00
H2       0.93641    0.35703    0.28788   1.00
H2       0.92530    0.42173    0.35949   1.00
C6       0.86539    0.43721    0.36622   1.00
C6       0.89214    0.36905    0.36607   1.00
H2       0.83839    0.39922    0.29625   1.00
C6       0.84769    0.41315    0.23664   1.00
C6       0.86089    0.34846    0.26756   1.00
H2       0.86981    0.46312    0.14654   1.00
H2       0.86863    0.50680    0.11910   1.00
H2       0.82743    0.47575    0.12083   1.00
H2       0.77631    0.52235    0.15392   1.00
H2       0.79697    0.56252    0.17822   1.00
H2       0.81130    0.55117    0.13036   1.00
H2       0.86436    0.55779    0.31328   1.00
H2       0.90620    0.55250    0.28468   1.00
H2       0.87428    0.59233    0.27648   1.00
H2       0.78837    0.53374    0.24138   1.00
H2       0.79896    0.55404    0.28692   1.00
H2       0.80713    0.58202    0.24450   1.00
H2       0.85545    0.61388    0.19486   1.00
H2       0.89395    0.62637    0.16292   1.00
H2       0.85771    0.59512    0.14668   1.00
H2       0.92288    0.60812    0.23098   1.00
H2       0.94860    0.56411    0.22932   1.00
H2       0.95433    0.59808    0.19172   1.00
H2       0.97561    0.41485    0.23312   1.00
H2       0.97632    0.36368    0.23191   1.00
H2       0.93342    0.38867    0.21952   1.00
H2       1.00511    0.36877    0.29875   1.00
H2       0.99778    0.41908    0.30426   1.00
H2       0.97862    0.38599    0.33878   1.00
H2       0.86845    0.43835    0.39798   1.00
H2       0.86768    0.46721    0.35565   1.00
H2       0.83611    0.42657    0.35965   1.00
H2       0.91433    0.34864    0.35584   1.00
H2       0.89463    0.37031    0.39788   1.00
H2       0.86340    0.35714    0.35915   1.00
H2       0.86933    0.41073    0.21344   1.00
H2       0.82037    0.40048    0.22619   1.00
H2       0.84227    0.44395    0.24166   1.00
H2       0.83154    0.33881    0.25956   1.00
H2       0.88053    0.34035    0.24378   1.00
H2       0.86923    0.33194    0.29343   1.00
