data_IRMOF10_SG202_interpen_Ligand10lp_label_p.

_audit_creation_method             'generated by an auxiliary program of Tobunporous'

_symmetry_space_group_name_H-M     'P 1'
_symmetry_Int_Tables_number        1
_symmetry_cell_setting             triclinic

_cell_length_a                    34.2800
_cell_length_b                    34.2800
_cell_length_c                    34.2800
_cell_angle_alpha                 90.0000
_cell_angle_beta                  90.0000
_cell_angle_gamma                 90.0000

loop_
_atom_site_label
_atom_site_fract_x
_atom_site_fract_y
_atom_site_fract_z
_atom_site_occupancy
O1       0.75000    0.75000    0.75000   1.00
Zn1      0.71720    0.78280    0.78280   1.00
Zn1      0.78280    0.71720    0.78280   1.00
Zn1      0.78280    0.78280    0.71720   1.00
Zn1      0.71720    0.71720    0.71720   1.00
O2       0.72650    0.77350    0.83820   1.00
O2       0.72650    0.83820    0.77350   1.00
O2       0.66180    0.77350    0.77350   1.00
O2       0.77350    0.72650    0.83820   1.00
O2       0.83820    0.72650    0.77350   1.00
O2       0.77350    0.66180    0.77350   1.00
O2       0.77350    0.83820    0.72650   1.00
O2       0.83820    0.77350    0.72650   1.00
O2       0.77350    0.77350    0.66180   1.00
O2       0.66180    0.72650    0.72650   1.00
O2       0.72650    0.66180    0.72650   1.00
O2       0.72650    0.72650    0.66180   1.00
C1       0.75000    0.75000    0.85520   1.00
C1       0.75000    0.85520    0.75000   1.00
C1       0.64480    0.75000    0.75000   1.00
C1       0.85520    0.75000    0.75000   1.00
C1       0.75000    0.64480    0.75000   1.00
C1       0.75000    0.75000    0.64480   1.00
O1       0.25000    0.25000    0.75000   1.00
Zn1      0.21720    0.28280    0.78280   1.00
Zn1      0.28280    0.21720    0.78280   1.00
Zn1      0.28280    0.28280    0.71720   1.00
Zn1      0.21720    0.21720    0.71720   1.00
O2       0.22650    0.27350    0.83820   1.00
O2       0.22650    0.33820    0.77350   1.00
O2       0.16180    0.27350    0.77350   1.00
O2       0.27350    0.22650    0.83820   1.00
O2       0.33820    0.22650    0.77350   1.00
O2       0.27350    0.16180    0.77350   1.00
O2       0.27350    0.33820    0.72650   1.00
O2       0.33820    0.27350    0.72650   1.00
O2       0.27350    0.27350    0.66180   1.00
O2       0.16180    0.22650    0.72650   1.00
O2       0.22650    0.16180    0.72650   1.00
O2       0.22650    0.22650    0.66180   1.00
C1       0.25000    0.25000    0.85520   1.00
C1       0.25000    0.35520    0.75000   1.00
C1       0.14480    0.25000    0.75000   1.00
C1       0.35520    0.25000    0.75000   1.00
C1       0.25000    0.14480    0.75000   1.00
C1       0.25000    0.25000    0.64480   1.00
O1       0.25000    0.75000    0.25000   1.00
Zn1      0.21720    0.78280    0.28280   1.00
Zn1      0.28280    0.71720    0.28280   1.00
Zn1      0.28280    0.78280    0.21720   1.00
Zn1      0.21720    0.71720    0.21720   1.00
O2       0.22650    0.77350    0.33820   1.00
O2       0.22650    0.83820    0.27350   1.00
O2       0.16180    0.77350    0.27350   1.00
O2       0.27350    0.72650    0.33820   1.00
O2       0.33820    0.72650    0.27350   1.00
O2       0.27350    0.66180    0.27350   1.00
O2       0.27350    0.83820    0.22650   1.00
O2       0.33820    0.77350    0.22650   1.00
O2       0.27350    0.77350    0.16180   1.00
O2       0.16180    0.72650    0.22650   1.00
O2       0.22650    0.66180    0.22650   1.00
O2       0.22650    0.72650    0.16180   1.00
C1       0.25000    0.75000    0.35520   1.00
C1       0.25000    0.85520    0.25000   1.00
C1       0.14480    0.75000    0.25000   1.00
C1       0.35520    0.75000    0.25000   1.00
C1       0.25000    0.64480    0.25000   1.00
C1       0.25000    0.75000    0.14480   1.00
O1       0.75000    0.25000    0.25000   1.00
Zn1      0.71720    0.28280    0.28280   1.00
Zn1      0.78280    0.21720    0.28280   1.00
Zn1      0.78280    0.28280    0.21720   1.00
Zn1      0.71720    0.21720    0.21720   1.00
O2       0.72650    0.27350    0.33820   1.00
O2       0.72650    0.33820    0.27350   1.00
O2       0.66180    0.27350    0.27350   1.00
O2       0.77350    0.22650    0.33820   1.00
O2       0.83820    0.22650    0.27350   1.00
O2       0.77350    0.16180    0.27350   1.00
O2       0.77350    0.33820    0.22650   1.00
O2       0.83820    0.27350    0.22650   1.00
O2       0.77350    0.27350    0.16180   1.00
O2       0.66180    0.22650    0.22650   1.00
O2       0.72650    0.16180    0.22650   1.00
O2       0.72650    0.22650    0.16180   1.00
C1       0.75000    0.25000    0.35520   1.00
C1       0.75000    0.35520    0.25000   1.00
C1       0.64480    0.25000    0.25000   1.00
C1       0.85520    0.25000    0.25000   1.00
C1       0.75000    0.14480    0.25000   1.00
C1       0.75000    0.25000    0.14480   1.00
O1       0.25000    0.25000    0.25000   1.00
Zn1      0.28280    0.21720    0.21720   1.00
Zn1      0.21720    0.28280    0.21720   1.00
Zn1      0.21720    0.21720    0.28280   1.00
Zn1      0.28280    0.28280    0.28280   1.00
O2       0.27350    0.22650    0.16180   1.00
O2       0.27350    0.16180    0.22650   1.00
O2       0.33820    0.22650    0.22650   1.00
O2       0.22650    0.27350    0.16180   1.00
O2       0.16180    0.27350    0.22650   1.00
O2       0.22650    0.33820    0.22650   1.00
O2       0.22650    0.16180    0.27350   1.00
O2       0.16180    0.22650    0.27350   1.00
O2       0.22650    0.22650    0.33820   1.00
O2       0.33820    0.27350    0.27350   1.00
O2       0.27350    0.33820    0.27350   1.00
O2       0.27350    0.27350    0.33820   1.00
C1       0.25000    0.25000    0.14480   1.00
C1       0.25000    0.14480    0.25000   1.00
C1       0.35520    0.25000    0.25000   1.00
C1       0.14480    0.25000    0.25000   1.00
C1       0.25000    0.35520    0.25000   1.00
C1       0.25000    0.25000    0.35520   1.00
O1       0.75000    0.75000    0.25000   1.00
Zn1      0.78280    0.71720    0.21720   1.00
Zn1      0.71720    0.78280    0.21720   1.00
Zn1      0.71720    0.71720    0.28280   1.00
Zn1      0.78280    0.78280    0.28280   1.00
O2       0.77350    0.72650    0.16180   1.00
O2       0.77350    0.66180    0.22650   1.00
O2       0.83820    0.72650    0.22650   1.00
O2       0.72650    0.77350    0.16180   1.00
O2       0.66180    0.77350    0.22650   1.00
O2       0.72650    0.83820    0.22650   1.00
O2       0.72650    0.66180    0.27350   1.00
O2       0.66180    0.72650    0.27350   1.00
O2       0.72650    0.72650    0.33820   1.00
O2       0.83820    0.77350    0.27350   1.00
O2       0.77350    0.83820    0.27350   1.00
O2       0.77350    0.77350    0.33820   1.00
C1       0.75000    0.75000    0.14480   1.00
C1       0.75000    0.64480    0.25000   1.00
C1       0.85520    0.75000    0.25000   1.00
C1       0.64480    0.75000    0.25000   1.00
C1       0.75000    0.85520    0.25000   1.00
C1       0.75000    0.75000    0.35520   1.00
O1       0.75000    0.25000    0.75000   1.00
Zn1      0.78280    0.21720    0.71720   1.00
Zn1      0.71720    0.28280    0.71720   1.00
Zn1      0.71720    0.21720    0.78280   1.00
Zn1      0.78280    0.28280    0.78280   1.00
O2       0.77350    0.22650    0.66180   1.00
O2       0.77350    0.16180    0.72650   1.00
O2       0.83820    0.22650    0.72650   1.00
O2       0.72650    0.27350    0.66180   1.00
O2       0.66180    0.27350    0.72650   1.00
O2       0.72650    0.33820    0.72650   1.00
O2       0.72650    0.16180    0.77350   1.00
O2       0.66180    0.22650    0.77350   1.00
O2       0.72650    0.22650    0.83820   1.00
O2       0.83820    0.27350    0.77350   1.00
O2       0.77350    0.33820    0.77350   1.00
O2       0.77350    0.27350    0.83820   1.00
C1       0.75000    0.25000    0.64480   1.00
C1       0.75000    0.14480    0.75000   1.00
C1       0.85520    0.25000    0.75000   1.00
C1       0.64480    0.25000    0.75000   1.00
C1       0.75000    0.35520    0.75000   1.00
C1       0.75000    0.25000    0.85520   1.00
O1       0.25000    0.75000    0.75000   1.00
Zn1      0.28280    0.71720    0.71720   1.00
Zn1      0.21720    0.78280    0.71720   1.00
Zn1      0.21720    0.71720    0.78280   1.00
Zn1      0.28280    0.78280    0.78280   1.00
O2       0.27350    0.72650    0.66180   1.00
O2       0.27350    0.66180    0.72650   1.00
O2       0.33820    0.72650    0.72650   1.00
O2       0.22650    0.77350    0.66180   1.00
O2       0.16180    0.77350    0.72650   1.00
O2       0.22650    0.83820    0.72650   1.00
O2       0.22650    0.66180    0.77350   1.00
O2       0.16180    0.72650    0.77350   1.00
O2       0.22650    0.72650    0.83820   1.00
O2       0.33820    0.77350    0.77350   1.00
O2       0.27350    0.83820    0.77350   1.00
O2       0.27350    0.77350    0.83820   1.00
C1       0.25000    0.75000    0.64480   1.00
C1       0.25000    0.64480    0.75000   1.00
C1       0.35520    0.75000    0.75000   1.00
C1       0.14480    0.75000    0.75000   1.00
C1       0.25000    0.85520    0.75000   1.00
C1       0.25000    0.75000    0.85520   1.00
O1       1.00000    1.00000    1.00000   1.00
Zn1      0.96720    1.03280    1.03280   1.00
Zn1      1.03280    0.96720    1.03280   1.00
Zn1      1.03280    1.03280    0.96720   1.00
Zn1      0.96720    0.96720    0.96720   1.00
O2       0.97650    1.02350    1.08820   1.00
O2       0.97650    1.08820    1.02350   1.00
O2       0.91180    1.02350    1.02350   1.00
O2       1.02350    0.97650    1.08820   1.00
O2       1.08820    0.97650    1.02350   1.00
O2       1.02350    0.91180    1.02350   1.00
O2       1.02350    1.08820    0.97650   1.00
O2       1.08820    1.02350    0.97650   1.00
O2       1.02350    1.02350    0.91180   1.00
O2       0.91180    0.97650    0.97650   1.00
O2       0.97650    0.91180    0.97650   1.00
O2       0.97650    0.97650    0.91180   1.00
C1       1.00000    1.00000    1.10520   1.00
C1       1.00000    1.10520    1.00000   1.00
C1       0.89480    1.00000    1.00000   1.00
C1       1.10520    1.00000    1.00000   1.00
C1       1.00000    0.89480    1.00000   1.00
C1       1.00000    1.00000    0.89480   1.00
O1       0.50000    0.50000    1.00000   1.00
Zn1      0.46720    0.53280    1.03280   1.00
Zn1      0.53280    0.46720    1.03280   1.00
Zn1      0.53280    0.53280    0.96720   1.00
Zn1      0.46720    0.46720    0.96720   1.00
O2       0.47650    0.52350    1.08820   1.00
O2       0.47650    0.58820    1.02350   1.00
O2       0.41180    0.52350    1.02350   1.00
O2       0.52350    0.47650    1.08820   1.00
O2       0.58820    0.47650    1.02350   1.00
O2       0.52350    0.41180    1.02350   1.00
O2       0.52350    0.58820    0.97650   1.00
O2       0.58820    0.52350    0.97650   1.00
O2       0.52350    0.52350    0.91180   1.00
O2       0.41180    0.47650    0.97650   1.00
O2       0.47650    0.41180    0.97650   1.00
O2       0.47650    0.47650    0.91180   1.00
C1       0.50000    0.50000    1.10520   1.00
C1       0.50000    0.60520    1.00000   1.00
C1       0.39480    0.50000    1.00000   1.00
C1       0.60520    0.50000    1.00000   1.00
C1       0.50000    0.39480    1.00000   1.00
C1       0.50000    0.50000    0.89480   1.00
O1       0.50000    1.00000    0.50000   1.00
Zn1      0.46720    1.03280    0.53280   1.00
Zn1      0.53280    0.96720    0.53280   1.00
Zn1      0.53280    1.03280    0.46720   1.00
Zn1      0.46720    0.96720    0.46720   1.00
O2       0.47650    1.02350    0.58820   1.00
O2       0.47650    1.08820    0.52350   1.00
O2       0.41180    1.02350    0.52350   1.00
O2       0.52350    0.97650    0.58820   1.00
O2       0.58820    0.97650    0.52350   1.00
O2       0.52350    0.91180    0.52350   1.00
O2       0.52350    1.08820    0.47650   1.00
O2       0.58820    1.02350    0.47650   1.00
O2       0.52350    1.02350    0.41180   1.00
O2       0.41180    0.97650    0.47650   1.00
O2       0.47650    0.91180    0.47650   1.00
O2       0.47650    0.97650    0.41180   1.00
C1       0.50000    1.00000    0.60520   1.00
C1       0.50000    1.10520    0.50000   1.00
C1       0.39480    1.00000    0.50000   1.00
C1       0.60520    1.00000    0.50000   1.00
C1       0.50000    0.89480    0.50000   1.00
C1       0.50000    1.00000    0.39480   1.00
O1       1.00000    0.50000    0.50000   1.00
Zn1      0.96720    0.53280    0.53280   1.00
Zn1      1.03280    0.46720    0.53280   1.00
Zn1      1.03280    0.53280    0.46720   1.00
Zn1      0.96720    0.46720    0.46720   1.00
O2       0.97650    0.52350    0.58820   1.00
O2       0.97650    0.58820    0.52350   1.00
O2       0.91180    0.52350    0.52350   1.00
O2       1.02350    0.47650    0.58820   1.00
O2       1.08820    0.47650    0.52350   1.00
O2       1.02350    0.41180    0.52350   1.00
O2       1.02350    0.58820    0.47650   1.00
O2       1.08820    0.52350    0.47650   1.00
O2       1.02350    0.52350    0.41180   1.00
O2       0.91180    0.47650    0.47650   1.00
O2       0.97650    0.41180    0.47650   1.00
O2       0.97650    0.47650    0.41180   1.00
C1       1.00000    0.50000    0.60520   1.00
C1       1.00000    0.60520    0.50000   1.00
C1       0.89480    0.50000    0.50000   1.00
C1       1.10520    0.50000    0.50000   1.00
C1       1.00000    0.39480    0.50000   1.00
C1       1.00000    0.50000    0.39480   1.00
O1       0.50000    0.50000    0.50000   1.00
Zn1      0.53280    0.46720    0.46720   1.00
Zn1      0.46720    0.53280    0.46720   1.00
Zn1      0.46720    0.46720    0.53280   1.00
Zn1      0.53280    0.53280    0.53280   1.00
O2       0.52350    0.47650    0.41180   1.00
O2       0.52350    0.41180    0.47650   1.00
O2       0.58820    0.47650    0.47650   1.00
O2       0.47650    0.52350    0.41180   1.00
O2       0.41180    0.52350    0.47650   1.00
O2       0.47650    0.58820    0.47650   1.00
O2       0.47650    0.41180    0.52350   1.00
O2       0.41180    0.47650    0.52350   1.00
O2       0.47650    0.47650    0.58820   1.00
O2       0.58820    0.52350    0.52350   1.00
O2       0.52350    0.58820    0.52350   1.00
O2       0.52350    0.52350    0.58820   1.00
C1       0.50000    0.50000    0.39480   1.00
C1       0.50000    0.39480    0.50000   1.00
C1       0.60520    0.50000    0.50000   1.00
C1       0.39480    0.50000    0.50000   1.00
C1       0.50000    0.60520    0.50000   1.00
C1       0.50000    0.50000    0.60520   1.00
O1       1.00000    1.00000    0.50000   1.00
Zn1      1.03280    0.96720    0.46720   1.00
Zn1      0.96720    1.03280    0.46720   1.00
Zn1      0.96720    0.96720    0.53280   1.00
Zn1      1.03280    1.03280    0.53280   1.00
O2       1.02350    0.97650    0.41180   1.00
O2       1.02350    0.91180    0.47650   1.00
O2       1.08820    0.97650    0.47650   1.00
O2       0.97650    1.02350    0.41180   1.00
O2       0.91180    1.02350    0.47650   1.00
O2       0.97650    1.08820    0.47650   1.00
O2       0.97650    0.91180    0.52350   1.00
O2       0.91180    0.97650    0.52350   1.00
O2       0.97650    0.97650    0.58820   1.00
O2       1.08820    1.02350    0.52350   1.00
O2       1.02350    1.08820    0.52350   1.00
O2       1.02350    1.02350    0.58820   1.00
C1       1.00000    1.00000    0.39480   1.00
C1       1.00000    0.89480    0.50000   1.00
C1       1.10520    1.00000    0.50000   1.00
C1       0.89480    1.00000    0.50000   1.00
C1       1.00000    1.10520    0.50000   1.00
C1       1.00000    1.00000    0.60520   1.00
O1       1.00000    0.50000    1.00000   1.00
Zn1      1.03280    0.46720    0.96720   1.00
Zn1      0.96720    0.53280    0.96720   1.00
Zn1      0.96720    0.46720    1.03280   1.00
Zn1      1.03280    0.53280    1.03280   1.00
O2       1.02350    0.47650    0.91180   1.00
O2       1.02350    0.41180    0.97650   1.00
O2       1.08820    0.47650    0.97650   1.00
O2       0.97650    0.52350    0.91180   1.00
O2       0.91180    0.52350    0.97650   1.00
O2       0.97650    0.58820    0.97650   1.00
O2       0.97650    0.41180    1.02350   1.00
O2       0.91180    0.47650    1.02350   1.00
O2       0.97650    0.47650    1.08820   1.00
O2       1.08820    0.52350    1.02350   1.00
O2       1.02350    0.58820    1.02350   1.00
O2       1.02350    0.52350    1.08820   1.00
C1       1.00000    0.50000    0.89480   1.00
C1       1.00000    0.39480    1.00000   1.00
C1       1.10520    0.50000    1.00000   1.00
C1       0.89480    0.50000    1.00000   1.00
C1       1.00000    0.60520    1.00000   1.00
C1       1.00000    0.50000    1.10520   1.00
O1       0.50000    1.00000    1.00000   1.00
Zn1      0.53280    0.96720    0.96720   1.00
Zn1      0.46720    1.03280    0.96720   1.00
Zn1      0.46720    0.96720    1.03280   1.00
Zn1      0.53280    1.03280    1.03280   1.00
O2       0.52350    0.97650    0.91180   1.00
O2       0.52350    0.91180    0.97650   1.00
O2       0.58820    0.97650    0.97650   1.00
O2       0.47650    1.02350    0.91180   1.00
O2       0.41180    1.02350    0.97650   1.00
O2       0.47650    1.08820    0.97650   1.00
O2       0.47650    0.91180    1.02350   1.00
O2       0.41180    0.97650    1.02350   1.00
O2       0.47650    0.97650    1.08820   1.00
O2       0.58820    1.02350    1.02350   1.00
O2       0.52350    1.08820    1.02350   1.00
O2       0.52350    1.02350    1.08820   1.00
C1       0.50000    1.00000    0.89480   1.00
C1       0.50000    0.89480    1.00000   1.00
C1       0.60520    1.00000    1.00000   1.00
C1       0.39480    1.00000    1.00000   1.00
C1       0.50000    1.10520    1.00000   1.00
C1       0.50000    1.00000    1.10520   1.00
C4       0.75004    0.74962    0.97915   1.00
C4       0.74996    0.75038    1.02085   1.00
C3       0.71868    0.73365    0.95751   1.00
C3       0.71584    0.75875    1.04252   1.00
C3       0.78127    0.76566    0.95738   1.00
C3       0.78404    0.74189    1.04259   1.00
C2       0.74984    0.74998    0.89482   1.00
C2       0.74984    0.74998    1.10518   1.00
C3a      0.71845    0.73374    0.91599   1.00
C3       0.71586    0.75855    1.08382   1.00
C3       0.78110    0.76581    0.91611   1.00
C3a      0.78418    0.74166    1.08403   1.00
H1       0.69435    0.72073    0.97294   1.00
H1       0.68897    0.76586    1.02750   1.00
C5       0.68463    0.71630    0.89410   1.00
H1       0.68914    0.76515    1.09933   1.00
H1       0.80542    0.77864    0.90056   1.00
C5       0.82146    0.73243    1.10535   1.00
H1       0.81067    0.73420    1.02747   1.00
H1       0.80573    0.77895    0.97230   1.00
H2       0.84332    0.75535    1.09837   1.00
H2       0.81697    0.73296    1.13747   1.00
N1       0.83611    0.69399    1.09395   1.00
C6       0.84817    0.68337    1.05810   1.00
C6       0.84037    0.66288    1.11757   1.00
C6       0.86011    0.64494    1.05873   1.00
C6       0.85514    0.63191    1.09656   1.00
H3       0.84837    0.70232    1.03281   1.00
H3       0.83306    0.66258    1.14831   1.00
H3       0.87125    0.62829    1.03436   1.00
H3       0.86159    0.60307    1.10758   1.00
H2       0.68979    0.71981    0.86228   1.00
H2       0.68199    0.68454    0.90001   1.00
N1       0.64830    0.73553    0.90523   1.00
C6       0.62262    0.75692    0.88078   1.00
C6       0.63098    0.73659    0.94285   1.00
C6       0.59157    0.77015    0.90277   1.00
C6       0.59671    0.75768    0.94091   1.00
H3       0.62699    0.76199    0.84992   1.00
H3       0.64317    0.72325    0.96876   1.00
H3       0.56741    0.78737    0.89205   1.00
H3       0.57727    0.76354    0.96505   1.00
C4       0.74962    0.97915    0.75004   1.00
C4       0.75038    1.02085    0.74996   1.00
C3       0.73365    0.95751    0.71868   1.00
C3       0.75875    1.04252    0.71584   1.00
C3       0.76566    0.95738    0.78127   1.00
C3       0.74189    1.04259    0.78404   1.00
C2       0.74998    0.89482    0.74984   1.00
C2       0.74998    1.10518    0.74984   1.00
C3a      0.73374    0.91599    0.71845   1.00
C3       0.75855    1.08382    0.71586   1.00
C3       0.76581    0.91611    0.78110   1.00
C3a      0.74166    1.08403    0.78418   1.00
H1       0.72073    0.97294    0.69435   1.00
H1       0.76586    1.02750    0.68897   1.00
C5       0.71630    0.89410    0.68463   1.00
H1       0.76515    1.09933    0.68914   1.00
H1       0.77864    0.90056    0.80542   1.00
C5       0.73243    1.10535    0.82146   1.00
H1       0.73420    1.02747    0.81067   1.00
H1       0.77895    0.97230    0.80573   1.00
H2       0.75535    1.09837    0.84332   1.00
H2       0.73296    1.13747    0.81697   1.00
N1       0.69399    1.09395    0.83611   1.00
C6       0.68337    1.05810    0.84817   1.00
C6       0.66288    1.11757    0.84037   1.00
C6       0.64494    1.05873    0.86011   1.00
C6       0.63191    1.09656    0.85514   1.00
H3       0.70232    1.03281    0.84837   1.00
H3       0.66258    1.14831    0.83306   1.00
H3       0.62829    1.03436    0.87125   1.00
H3       0.60307    1.10758    0.86159   1.00
H2       0.71981    0.86228    0.68979   1.00
H2       0.68454    0.90001    0.68199   1.00
N1       0.73553    0.90523    0.64830   1.00
C6       0.75692    0.88078    0.62262   1.00
C6       0.73659    0.94285    0.63098   1.00
C6       0.77015    0.90277    0.59157   1.00
C6       0.75768    0.94091    0.59671   1.00
H3       0.76199    0.84992    0.62699   1.00
H3       0.72325    0.96876    0.64317   1.00
H3       0.78737    0.89205    0.56741   1.00
H3       0.76354    0.96505    0.57727   1.00
C4       0.52085    0.75004    0.75038   1.00
C4       0.47915    0.74996    0.74962   1.00
C3       0.54249    0.71868    0.76635   1.00
C3       0.45748    0.71584    0.74125   1.00
C3       0.54262    0.78127    0.73434   1.00
C3       0.45741    0.78404    0.75811   1.00
C2       0.60518    0.74984    0.75002   1.00
C2       0.39482    0.74984    0.75002   1.00
C3a      0.58401    0.71845    0.76626   1.00
C3       0.41618    0.71586    0.74145   1.00
C3       0.58389    0.78110    0.73419   1.00
C3a      0.41597    0.78418    0.75834   1.00
H1       0.52706    0.69435    0.77927   1.00
H1       0.47250    0.68897    0.73414   1.00
C5       0.60590    0.68463    0.78370   1.00
H1       0.40067    0.68914    0.73485   1.00
H1       0.59944    0.80542    0.72136   1.00
C5       0.39465    0.82146    0.76757   1.00
H1       0.47253    0.81067    0.76580   1.00
H1       0.52770    0.80573    0.72105   1.00
H2       0.40163    0.84332    0.74465   1.00
H2       0.36253    0.81697    0.76704   1.00
N1       0.40605    0.83611    0.80601   1.00
C6       0.44190    0.84817    0.81663   1.00
C6       0.38243    0.84037    0.83712   1.00
C6       0.44127    0.86011    0.85506   1.00
C6       0.40344    0.85514    0.86809   1.00
H3       0.46719    0.84837    0.79768   1.00
H3       0.35169    0.83306    0.83742   1.00
H3       0.46564    0.87125    0.87171   1.00
H3       0.39242    0.86159    0.89693   1.00
H2       0.63772    0.68979    0.78019   1.00
H2       0.59999    0.68199    0.81546   1.00
N1       0.59477    0.64830    0.76447   1.00
C6       0.61922    0.62262    0.74308   1.00
C6       0.55715    0.63098    0.76341   1.00
C6       0.59723    0.59157    0.72985   1.00
C6       0.55909    0.59671    0.74232   1.00
H3       0.65008    0.62699    0.73801   1.00
H3       0.53124    0.64317    0.77675   1.00
H3       0.60795    0.56741    0.71263   1.00
H3       0.53495    0.57727    0.73646   1.00
C4       0.97915    0.75004    0.74962   1.00
C4       1.02085    0.74996    0.75038   1.00
C3       0.95751    0.71868    0.73365   1.00
C3       1.04252    0.71584    0.75875   1.00
C3       0.95738    0.78127    0.76566   1.00
C3       1.04259    0.78404    0.74189   1.00
C2       0.89482    0.74984    0.74998   1.00
C2       1.10518    0.74984    0.74998   1.00
C3a      0.91599    0.71845    0.73374   1.00
C3       1.08382    0.71586    0.75855   1.00
C3       0.91611    0.78110    0.76581   1.00
C3a      1.08403    0.78418    0.74166   1.00
H1       0.97294    0.69435    0.72073   1.00
H1       1.02750    0.68897    0.76586   1.00
C5       0.89410    0.68463    0.71630   1.00
H1       1.09933    0.68914    0.76515   1.00
H1       0.90056    0.80542    0.77864   1.00
C5       1.10535    0.82146    0.73243   1.00
H1       1.02747    0.81067    0.73420   1.00
H1       0.97230    0.80573    0.77895   1.00
H2       1.09837    0.84332    0.75535   1.00
H2       1.13747    0.81697    0.73296   1.00
N1       1.09395    0.83611    0.69399   1.00
C6       1.05810    0.84817    0.68337   1.00
C6       1.11757    0.84037    0.66288   1.00
C6       1.05873    0.86011    0.64494   1.00
C6       1.09656    0.85514    0.63191   1.00
H3       1.03281    0.84837    0.70232   1.00
H3       1.14831    0.83306    0.66258   1.00
H3       1.03436    0.87125    0.62829   1.00
H3       1.10758    0.86159    0.60307   1.00
H2       0.86228    0.68979    0.71981   1.00
H2       0.90001    0.68199    0.68454   1.00
N1       0.90523    0.64830    0.73553   1.00
C6       0.88078    0.62262    0.75692   1.00
C6       0.94285    0.63098    0.73659   1.00
C6       0.90277    0.59157    0.77015   1.00
C6       0.94091    0.59671    0.75768   1.00
H3       0.84992    0.62699    0.76199   1.00
H3       0.96876    0.64317    0.72325   1.00
H3       0.89205    0.56741    0.78737   1.00
H3       0.96505    0.57727    0.76354   1.00
C4       0.75038    0.52085    0.75004   1.00
C4       0.74962    0.47915    0.74996   1.00
C3       0.76635    0.54249    0.71868   1.00
C3       0.74125    0.45748    0.71584   1.00
C3       0.73434    0.54262    0.78127   1.00
C3       0.75811    0.45741    0.78404   1.00
C2       0.75002    0.60518    0.74984   1.00
C2       0.75002    0.39482    0.74984   1.00
C3a      0.76626    0.58401    0.71845   1.00
C3       0.74145    0.41618    0.71586   1.00
C3       0.73419    0.58389    0.78110   1.00
C3a      0.75834    0.41597    0.78418   1.00
H1       0.77927    0.52706    0.69435   1.00
H1       0.73414    0.47250    0.68897   1.00
C5       0.78370    0.60590    0.68463   1.00
H1       0.73485    0.40067    0.68914   1.00
H1       0.72136    0.59944    0.80542   1.00
C5       0.76757    0.39465    0.82146   1.00
H1       0.76580    0.47253    0.81067   1.00
H1       0.72105    0.52770    0.80573   1.00
H2       0.74465    0.40163    0.84332   1.00
H2       0.76704    0.36253    0.81697   1.00
N1       0.80601    0.40605    0.83611   1.00
C6       0.81663    0.44190    0.84817   1.00
C6       0.83712    0.38243    0.84037   1.00
C6       0.85506    0.44127    0.86011   1.00
C6       0.86809    0.40344    0.85514   1.00
H3       0.79768    0.46719    0.84837   1.00
H3       0.83742    0.35169    0.83306   1.00
H3       0.87171    0.46564    0.87125   1.00
H3       0.89693    0.39242    0.86159   1.00
H2       0.78019    0.63772    0.68979   1.00
H2       0.81546    0.59999    0.68199   1.00
N1       0.76447    0.59477    0.64830   1.00
C6       0.74308    0.61922    0.62262   1.00
C6       0.76341    0.55715    0.63098   1.00
C6       0.72985    0.59723    0.59157   1.00
C6       0.74232    0.55909    0.59671   1.00
H3       0.73801    0.65008    0.62699   1.00
H3       0.77675    0.53124    0.64317   1.00
H3       0.71263    0.60795    0.56741   1.00
H3       0.73646    0.53495    0.57727   1.00
C4       0.75004    0.75038    0.52085   1.00
C4       0.74996    0.74962    0.47915   1.00
C3       0.71868    0.76635    0.54249   1.00
C3       0.71584    0.74125    0.45748   1.00
C3       0.78127    0.73434    0.54262   1.00
C3       0.78404    0.75811    0.45741   1.00
C2       0.74984    0.75002    0.60518   1.00
C2       0.74984    0.75002    0.39482   1.00
C3a      0.71845    0.76626    0.58401   1.00
C3       0.71586    0.74145    0.41618   1.00
C3       0.78110    0.73419    0.58389   1.00
C3a      0.78418    0.75834    0.41597   1.00
H1       0.69435    0.77927    0.52706   1.00
H1       0.68897    0.73414    0.47250   1.00
C5       0.68463    0.78370    0.60590   1.00
H1       0.68914    0.73485    0.40067   1.00
H1       0.80542    0.72136    0.59944   1.00
C5       0.82146    0.76757    0.39465   1.00
H1       0.81067    0.76580    0.47253   1.00
H1       0.80573    0.72105    0.52770   1.00
H2       0.84332    0.74465    0.40163   1.00
H2       0.81697    0.76704    0.36253   1.00
N1       0.83611    0.80601    0.40605   1.00
C6       0.84817    0.81663    0.44190   1.00
C6       0.84037    0.83712    0.38243   1.00
C6       0.86011    0.85506    0.44127   1.00
C6       0.85514    0.86809    0.40344   1.00
H3       0.84837    0.79768    0.46719   1.00
H3       0.83306    0.83742    0.35169   1.00
H3       0.87125    0.87171    0.46564   1.00
H3       0.86159    0.89693    0.39242   1.00
H2       0.68979    0.78019    0.63772   1.00
H2       0.68199    0.81546    0.59999   1.00
N1       0.64830    0.76447    0.59477   1.00
C6       0.62262    0.74308    0.61922   1.00
C6       0.63098    0.76341    0.55715   1.00
C6       0.59157    0.72985    0.59723   1.00
C6       0.59671    0.74232    0.55909   1.00
H3       0.62699    0.73801    0.65008   1.00
H3       0.64317    0.77675    0.53124   1.00
H3       0.56741    0.71263    0.60795   1.00
H3       0.57727    0.73646    0.53495   1.00
C4       0.25004    0.24962    0.97915   1.00
C4       0.24996    0.25038    1.02085   1.00
C3       0.21868    0.23365    0.95751   1.00
C3       0.21584    0.25875    1.04252   1.00
C3       0.28127    0.26566    0.95738   1.00
C3       0.28404    0.24189    1.04259   1.00
C2       0.24984    0.24998    0.89482   1.00
C2       0.24984    0.24998    1.10518   1.00
C3a      0.21845    0.23374    0.91599   1.00
C3       0.21586    0.25855    1.08382   1.00
C3       0.28110    0.26581    0.91611   1.00
C3a      0.28418    0.24166    1.08403   1.00
H1       0.19435    0.22073    0.97294   1.00
H1       0.18897    0.26586    1.02750   1.00
C5       0.18463    0.21630    0.89410   1.00
H1       0.18914    0.26515    1.09933   1.00
H1       0.30542    0.27864    0.90056   1.00
C5       0.32146    0.23243    1.10535   1.00
H1       0.31067    0.23420    1.02747   1.00
H1       0.30573    0.27895    0.97230   1.00
H2       0.34332    0.25535    1.09837   1.00
H2       0.31697    0.23296    1.13747   1.00
N1       0.33611    0.19399    1.09395   1.00
C6       0.34817    0.18337    1.05810   1.00
C6       0.34037    0.16288    1.11757   1.00
C6       0.36011    0.14494    1.05873   1.00
C6       0.35514    0.13191    1.09656   1.00
H3       0.34837    0.20232    1.03281   1.00
H3       0.33306    0.16258    1.14831   1.00
H3       0.37125    0.12829    1.03436   1.00
H3       0.36159    0.10307    1.10758   1.00
H2       0.18979    0.21981    0.86228   1.00
H2       0.18199    0.18454    0.90001   1.00
N1       0.14830    0.23553    0.90523   1.00
C6       0.12262    0.25692    0.88078   1.00
C6       0.13098    0.23659    0.94285   1.00
C6       0.09157    0.27015    0.90277   1.00
C6       0.09671    0.25768    0.94091   1.00
H3       0.12699    0.26199    0.84992   1.00
H3       0.14317    0.22325    0.96876   1.00
H3       0.06741    0.28737    0.89205   1.00
H3       0.07727    0.26354    0.96505   1.00
C4       0.24962    0.47915    0.75004   1.00
C4       0.25038    0.52085    0.74996   1.00
C3       0.23365    0.45751    0.71868   1.00
C3       0.25875    0.54252    0.71584   1.00
C3       0.26566    0.45738    0.78127   1.00
C3       0.24189    0.54259    0.78404   1.00
C2       0.24998    0.39482    0.74984   1.00
C2       0.24998    0.60518    0.74984   1.00
C3a      0.23374    0.41599    0.71845   1.00
C3       0.25855    0.58382    0.71586   1.00
C3       0.26581    0.41611    0.78110   1.00
C3a      0.24166    0.58403    0.78418   1.00
H1       0.22073    0.47294    0.69435   1.00
H1       0.26586    0.52750    0.68897   1.00
C5       0.21630    0.39410    0.68463   1.00
H1       0.26515    0.59933    0.68914   1.00
H1       0.27864    0.40056    0.80542   1.00
C5       0.23243    0.60535    0.82146   1.00
H1       0.23420    0.52747    0.81067   1.00
H1       0.27895    0.47230    0.80573   1.00
H2       0.25535    0.59837    0.84332   1.00
H2       0.23296    0.63747    0.81697   1.00
N1       0.19399    0.59395    0.83611   1.00
C6       0.18337    0.55810    0.84817   1.00
C6       0.16288    0.61757    0.84037   1.00
C6       0.14494    0.55873    0.86011   1.00
C6       0.13191    0.59656    0.85514   1.00
H3       0.20232    0.53281    0.84837   1.00
H3       0.16258    0.64831    0.83306   1.00
H3       0.12829    0.53436    0.87125   1.00
H3       0.10307    0.60758    0.86159   1.00
H2       0.21981    0.36228    0.68979   1.00
H2       0.18454    0.40001    0.68199   1.00
N1       0.23553    0.40523    0.64830   1.00
C6       0.25692    0.38078    0.62262   1.00
C6       0.23659    0.44285    0.63098   1.00
C6       0.27015    0.40277    0.59157   1.00
C6       0.25768    0.44091    0.59671   1.00
H3       0.26199    0.34992    0.62699   1.00
H3       0.22325    0.46876    0.64317   1.00
H3       0.28737    0.39205    0.56741   1.00
H3       0.26354    0.46505    0.57727   1.00
C4       0.02085    0.25004    0.75038   1.00
C4       -0.02085   0.24996    0.74962   1.00
C3       0.04249    0.21868    0.76635   1.00
C3       -0.04252   0.21584    0.74125   1.00
C3       0.04262    0.28127    0.73434   1.00
C3       -0.04259   0.28404    0.75811   1.00
C2       0.10518    0.24984    0.75002   1.00
C2       -0.10518   0.24984    0.75002   1.00
C3a      0.08401    0.21845    0.76626   1.00
C3       -0.08382   0.21586    0.74145   1.00
C3       0.08389    0.28110    0.73419   1.00
C3a      -0.08403   0.28418    0.75834   1.00
H1       0.02706    0.19435    0.77927   1.00
H1       -0.02750   0.18897    0.73414   1.00
C5       0.10590    0.18463    0.78370   1.00
H1       -0.09933   0.18914    0.73485   1.00
H1       0.09944    0.30542    0.72136   1.00
C5       -0.10535   0.32146    0.76757   1.00
H1       -0.02747   0.31067    0.76580   1.00
H1       0.02770    0.30573    0.72105   1.00
H2       -0.09837   0.34332    0.74465   1.00
H2       -0.13747   0.31697    0.76704   1.00
N1       -0.09395   0.33611    0.80601   1.00
C6       -0.05810   0.34817    0.81663   1.00
C6       -0.11757   0.34037    0.83712   1.00
C6       -0.05873   0.36011    0.85506   1.00
C6       -0.09656   0.35514    0.86809   1.00
H3       -0.03281   0.34837    0.79768   1.00
H3       -0.14831   0.33306    0.83742   1.00
H3       -0.03436   0.37125    0.87171   1.00
H3       -0.10758   0.36159    0.89693   1.00
H2       0.13772    0.18979    0.78019   1.00
H2       0.09999    0.18199    0.81546   1.00
N1       0.09477    0.14830    0.76447   1.00
C6       0.11922    0.12262    0.74308   1.00
C6       0.05715    0.13098    0.76341   1.00
C6       0.09723    0.09157    0.72985   1.00
C6       0.05909    0.09671    0.74232   1.00
H3       0.15008    0.12699    0.73801   1.00
H3       0.03124    0.14317    0.77675   1.00
H3       0.10795    0.06741    0.71263   1.00
H3       0.03495    0.07727    0.73646   1.00
C4       0.47915    0.25004    0.74962   1.00
C4       0.52085    0.24996    0.75038   1.00
C3       0.45751    0.21868    0.73365   1.00
C3       0.54252    0.21584    0.75875   1.00
C3       0.45738    0.28127    0.76566   1.00
C3       0.54259    0.28404    0.74189   1.00
C2       0.39482    0.24984    0.74998   1.00
C2       0.60518    0.24984    0.74998   1.00
C3a      0.41599    0.21845    0.73374   1.00
C3       0.58382    0.21586    0.75855   1.00
C3       0.41611    0.28110    0.76581   1.00
C3a      0.58403    0.28418    0.74166   1.00
H1       0.47294    0.19435    0.72073   1.00
H1       0.52750    0.18897    0.76586   1.00
C5       0.39410    0.18463    0.71630   1.00
H1       0.59933    0.18914    0.76515   1.00
H1       0.40056    0.30542    0.77864   1.00
C5       0.60535    0.32146    0.73243   1.00
H1       0.52747    0.31067    0.73420   1.00
H1       0.47230    0.30573    0.77895   1.00
H2       0.59837    0.34332    0.75535   1.00
H2       0.63747    0.31697    0.73296   1.00
N1       0.59395    0.33611    0.69399   1.00
C6       0.55810    0.34817    0.68337   1.00
C6       0.61757    0.34037    0.66288   1.00
C6       0.55873    0.36011    0.64494   1.00
C6       0.59656    0.35514    0.63191   1.00
H3       0.53281    0.34837    0.70232   1.00
H3       0.64831    0.33306    0.66258   1.00
H3       0.53436    0.37125    0.62829   1.00
H3       0.60758    0.36159    0.60307   1.00
H2       0.36228    0.18979    0.71981   1.00
H2       0.40001    0.18199    0.68454   1.00
N1       0.40523    0.14830    0.73553   1.00
C6       0.38078    0.12262    0.75692   1.00
C6       0.44285    0.13098    0.73659   1.00
C6       0.40277    0.09157    0.77015   1.00
C6       0.44091    0.09671    0.75768   1.00
H3       0.34992    0.12699    0.76199   1.00
H3       0.46876    0.14317    0.72325   1.00
H3       0.39205    0.06741    0.78737   1.00
H3       0.46505    0.07727    0.76354   1.00
C4       0.25038    0.02085    0.75004   1.00
C4       0.24962    -0.02085   0.74996   1.00
C3       0.26635    0.04249    0.71868   1.00
C3       0.24125    -0.04252   0.71584   1.00
C3       0.23434    0.04262    0.78127   1.00
C3       0.25811    -0.04259   0.78404   1.00
C2       0.25002    0.10518    0.74984   1.00
C2       0.25002    -0.10518   0.74984   1.00
C3a      0.26626    0.08401    0.71845   1.00
C3       0.24145    -0.08382   0.71586   1.00
C3       0.23419    0.08389    0.78110   1.00
C3a      0.25834    -0.08403   0.78418   1.00
H1       0.27927    0.02706    0.69435   1.00
H1       0.23414    -0.02750   0.68897   1.00
C5       0.28370    0.10590    0.68463   1.00
H1       0.23485    -0.09933   0.68914   1.00
H1       0.22136    0.09944    0.80542   1.00
C5       0.26757    -0.10535   0.82146   1.00
H1       0.26580    -0.02747   0.81067   1.00
H1       0.22105    0.02770    0.80573   1.00
H2       0.24465    -0.09837   0.84332   1.00
H2       0.26704    -0.13747   0.81697   1.00
N1       0.30601    -0.09395   0.83611   1.00
C6       0.31663    -0.05810   0.84817   1.00
C6       0.33712    -0.11757   0.84037   1.00
C6       0.35506    -0.05873   0.86011   1.00
C6       0.36809    -0.09656   0.85514   1.00
H3       0.29768    -0.03281   0.84837   1.00
H3       0.33742    -0.14831   0.83306   1.00
H3       0.37171    -0.03436   0.87125   1.00
H3       0.39693    -0.10758   0.86159   1.00
H2       0.28019    0.13772    0.68979   1.00
H2       0.31546    0.09999    0.68199   1.00
N1       0.26447    0.09477    0.64830   1.00
C6       0.24308    0.11922    0.62262   1.00
C6       0.26341    0.05715    0.63098   1.00
C6       0.22985    0.09723    0.59157   1.00
C6       0.24232    0.05909    0.59671   1.00
H3       0.23801    0.15008    0.62699   1.00
H3       0.27675    0.03124    0.64317   1.00
H3       0.21263    0.10795    0.56741   1.00
H3       0.23646    0.03495    0.57727   1.00
C4       0.25004    0.25038    0.52085   1.00
C4       0.24996    0.24962    0.47915   1.00
C3       0.21868    0.26635    0.54249   1.00
C3       0.21584    0.24125    0.45748   1.00
C3       0.28127    0.23434    0.54262   1.00
C3       0.28404    0.25811    0.45741   1.00
C2       0.24984    0.25002    0.60518   1.00
C2       0.24984    0.25002    0.39482   1.00
C3a      0.21845    0.26626    0.58401   1.00
C3       0.21586    0.24145    0.41618   1.00
C3       0.28110    0.23419    0.58389   1.00
C3a      0.28418    0.25834    0.41597   1.00
H1       0.19435    0.27927    0.52706   1.00
H1       0.18897    0.23414    0.47250   1.00
C5       0.18463    0.28370    0.60590   1.00
H1       0.18914    0.23485    0.40067   1.00
H1       0.30542    0.22136    0.59944   1.00
C5       0.32146    0.26757    0.39465   1.00
H1       0.31067    0.26580    0.47253   1.00
H1       0.30573    0.22105    0.52770   1.00
H2       0.34332    0.24465    0.40163   1.00
H2       0.31697    0.26704    0.36253   1.00
N1       0.33611    0.30601    0.40605   1.00
C6       0.34817    0.31663    0.44190   1.00
C6       0.34037    0.33712    0.38243   1.00
C6       0.36011    0.35506    0.44127   1.00
C6       0.35514    0.36809    0.40344   1.00
H3       0.34837    0.29768    0.46719   1.00
H3       0.33306    0.33742    0.35169   1.00
H3       0.37125    0.37171    0.46564   1.00
H3       0.36159    0.39693    0.39242   1.00
H2       0.18979    0.28019    0.63772   1.00
H2       0.18199    0.31546    0.59999   1.00
N1       0.14830    0.26447    0.59477   1.00
C6       0.12262    0.24308    0.61922   1.00
C6       0.13098    0.26341    0.55715   1.00
C6       0.09157    0.22985    0.59723   1.00
C6       0.09671    0.24232    0.55909   1.00
H3       0.12699    0.23801    0.65008   1.00
H3       0.14317    0.27675    0.53124   1.00
H3       0.06741    0.21263    0.60795   1.00
H3       0.07727    0.23646    0.53495   1.00
C4       0.25004    0.74962    0.47915   1.00
C4       0.24996    0.75038    0.52085   1.00
C3       0.21868    0.73365    0.45751   1.00
C3       0.21584    0.75875    0.54252   1.00
C3       0.28127    0.76566    0.45738   1.00
C3       0.28404    0.74189    0.54259   1.00
C2       0.24984    0.74998    0.39482   1.00
C2       0.24984    0.74998    0.60518   1.00
C3a      0.21845    0.73374    0.41599   1.00
C3       0.21586    0.75855    0.58382   1.00
C3       0.28110    0.76581    0.41611   1.00
C3a      0.28418    0.74166    0.58403   1.00
H1       0.19435    0.72073    0.47294   1.00
H1       0.18897    0.76586    0.52750   1.00
C5       0.18463    0.71630    0.39410   1.00
H1       0.18914    0.76515    0.59933   1.00
H1       0.30542    0.77864    0.40056   1.00
C5       0.32146    0.73243    0.60535   1.00
H1       0.31067    0.73420    0.52747   1.00
H1       0.30573    0.77895    0.47230   1.00
H2       0.34332    0.75535    0.59837   1.00
H2       0.31697    0.73296    0.63747   1.00
N1       0.33611    0.69399    0.59395   1.00
C6       0.34817    0.68337    0.55810   1.00
C6       0.34037    0.66288    0.61757   1.00
C6       0.36011    0.64494    0.55873   1.00
C6       0.35514    0.63191    0.59656   1.00
H3       0.34837    0.70232    0.53281   1.00
H3       0.33306    0.66258    0.64831   1.00
H3       0.37125    0.62829    0.53436   1.00
H3       0.36159    0.60307    0.60758   1.00
H2       0.18979    0.71981    0.36228   1.00
H2       0.18199    0.68454    0.40001   1.00
N1       0.14830    0.73553    0.40523   1.00
C6       0.12262    0.75692    0.38078   1.00
C6       0.13098    0.73659    0.44285   1.00
C6       0.09157    0.77015    0.40277   1.00
C6       0.09671    0.75768    0.44091   1.00
H3       0.12699    0.76199    0.34992   1.00
H3       0.14317    0.72325    0.46876   1.00
H3       0.06741    0.78737    0.39205   1.00
H3       0.07727    0.76354    0.46505   1.00
C4       0.24962    0.97915    0.25004   1.00
C4       0.25038    1.02085    0.24996   1.00
C3       0.23365    0.95751    0.21868   1.00
C3       0.25875    1.04252    0.21584   1.00
C3       0.26566    0.95738    0.28127   1.00
C3       0.24189    1.04259    0.28404   1.00
C2       0.24998    0.89482    0.24984   1.00
C2       0.24998    1.10518    0.24984   1.00
C3a      0.23374    0.91599    0.21845   1.00
C3       0.25855    1.08382    0.21586   1.00
C3       0.26581    0.91611    0.28110   1.00
C3a      0.24166    1.08403    0.28418   1.00
H1       0.22073    0.97294    0.19435   1.00
H1       0.26586    1.02750    0.18897   1.00
C5       0.21630    0.89410    0.18463   1.00
H1       0.26515    1.09933    0.18914   1.00
H1       0.27864    0.90056    0.30542   1.00
C5       0.23243    1.10535    0.32146   1.00
H1       0.23420    1.02747    0.31067   1.00
H1       0.27895    0.97230    0.30573   1.00
H2       0.25535    1.09837    0.34332   1.00
H2       0.23296    1.13747    0.31697   1.00
N1       0.19399    1.09395    0.33611   1.00
C6       0.18337    1.05810    0.34817   1.00
C6       0.16288    1.11757    0.34037   1.00
C6       0.14494    1.05873    0.36011   1.00
C6       0.13191    1.09656    0.35514   1.00
H3       0.20232    1.03281    0.34837   1.00
H3       0.16258    1.14831    0.33306   1.00
H3       0.12829    1.03436    0.37125   1.00
H3       0.10307    1.10758    0.36159   1.00
H2       0.21981    0.86228    0.18979   1.00
H2       0.18454    0.90001    0.18199   1.00
N1       0.23553    0.90523    0.14830   1.00
C6       0.25692    0.88078    0.12262   1.00
C6       0.23659    0.94285    0.13098   1.00
C6       0.27015    0.90277    0.09157   1.00
C6       0.25768    0.94091    0.09671   1.00
H3       0.26199    0.84992    0.12699   1.00
H3       0.22325    0.96876    0.14317   1.00
H3       0.28737    0.89205    0.06741   1.00
H3       0.26354    0.96505    0.07727   1.00
C4       0.02085    0.75004    0.25038   1.00
C4       -0.02085   0.74996    0.24962   1.00
C3       0.04249    0.71868    0.26635   1.00
C3       -0.04252   0.71584    0.24125   1.00
C3       0.04262    0.78127    0.23434   1.00
C3       -0.04259   0.78404    0.25811   1.00
C2       0.10518    0.74984    0.25002   1.00
C2       -0.10518   0.74984    0.25002   1.00
C3a      0.08401    0.71845    0.26626   1.00
C3       -0.08382   0.71586    0.24145   1.00
C3       0.08389    0.78110    0.23419   1.00
C3a      -0.08403   0.78418    0.25834   1.00
H1       0.02706    0.69435    0.27927   1.00
H1       -0.02750   0.68897    0.23414   1.00
C5       0.10590    0.68463    0.28370   1.00
H1       -0.09933   0.68914    0.23485   1.00
H1       0.09944    0.80542    0.22136   1.00
C5       -0.10535   0.82146    0.26757   1.00
H1       -0.02747   0.81067    0.26580   1.00
H1       0.02770    0.80573    0.22105   1.00
H2       -0.09837   0.84332    0.24465   1.00
H2       -0.13747   0.81697    0.26704   1.00
N1       -0.09395   0.83611    0.30601   1.00
C6       -0.05810   0.84817    0.31663   1.00
C6       -0.11757   0.84037    0.33712   1.00
C6       -0.05873   0.86011    0.35506   1.00
C6       -0.09656   0.85514    0.36809   1.00
H3       -0.03281   0.84837    0.29768   1.00
H3       -0.14831   0.83306    0.33742   1.00
H3       -0.03436   0.87125    0.37171   1.00
H3       -0.10758   0.86159    0.39693   1.00
H2       0.13772    0.68979    0.28019   1.00
H2       0.09999    0.68199    0.31546   1.00
N1       0.09477    0.64830    0.26447   1.00
C6       0.11922    0.62262    0.24308   1.00
C6       0.05715    0.63098    0.26341   1.00
C6       0.09723    0.59157    0.22985   1.00
C6       0.05909    0.59671    0.24232   1.00
H3       0.15008    0.62699    0.23801   1.00
H3       0.03124    0.64317    0.27675   1.00
H3       0.10795    0.56741    0.21263   1.00
H3       0.03495    0.57727    0.23646   1.00
C4       0.47915    0.75004    0.24962   1.00
C4       0.52085    0.74996    0.25038   1.00
C3       0.45751    0.71868    0.23365   1.00
C3       0.54252    0.71584    0.25875   1.00
C3       0.45738    0.78127    0.26566   1.00
C3       0.54259    0.78404    0.24189   1.00
C2       0.39482    0.74984    0.24998   1.00
C2       0.60518    0.74984    0.24998   1.00
C3a      0.41599    0.71845    0.23374   1.00
C3       0.58382    0.71586    0.25855   1.00
C3       0.41611    0.78110    0.26581   1.00
C3a      0.58403    0.78418    0.24166   1.00
H1       0.47294    0.69435    0.22073   1.00
H1       0.52750    0.68897    0.26586   1.00
C5       0.39410    0.68463    0.21630   1.00
H1       0.59933    0.68914    0.26515   1.00
H1       0.40056    0.80542    0.27864   1.00
C5       0.60535    0.82146    0.23243   1.00
H1       0.52747    0.81067    0.23420   1.00
H1       0.47230    0.80573    0.27895   1.00
H2       0.59837    0.84332    0.25535   1.00
H2       0.63747    0.81697    0.23296   1.00
N1       0.59395    0.83611    0.19399   1.00
C6       0.55810    0.84817    0.18337   1.00
C6       0.61757    0.84037    0.16288   1.00
C6       0.55873    0.86011    0.14494   1.00
C6       0.59656    0.85514    0.13191   1.00
H3       0.53281    0.84837    0.20232   1.00
H3       0.64831    0.83306    0.16258   1.00
H3       0.53436    0.87125    0.12829   1.00
H3       0.60758    0.86159    0.10307   1.00
H2       0.36228    0.68979    0.21981   1.00
H2       0.40001    0.68199    0.18454   1.00
N1       0.40523    0.64830    0.23553   1.00
C6       0.38078    0.62262    0.25692   1.00
C6       0.44285    0.63098    0.23659   1.00
C6       0.40277    0.59157    0.27015   1.00
C6       0.44091    0.59671    0.25768   1.00
H3       0.34992    0.62699    0.26199   1.00
H3       0.46876    0.64317    0.22325   1.00
H3       0.39205    0.56741    0.28737   1.00
H3       0.46505    0.57727    0.26354   1.00
C4       0.25038    0.52085    0.25004   1.00
C4       0.24962    0.47915    0.24996   1.00
C3       0.26635    0.54249    0.21868   1.00
C3       0.24125    0.45748    0.21584   1.00
C3       0.23434    0.54262    0.28127   1.00
C3       0.25811    0.45741    0.28404   1.00
C2       0.25002    0.60518    0.24984   1.00
C2       0.25002    0.39482    0.24984   1.00
C3a      0.26626    0.58401    0.21845   1.00
C3       0.24145    0.41618    0.21586   1.00
C3       0.23419    0.58389    0.28110   1.00
C3a      0.25834    0.41597    0.28418   1.00
H1       0.27927    0.52706    0.19435   1.00
H1       0.23414    0.47250    0.18897   1.00
C5       0.28370    0.60590    0.18463   1.00
H1       0.23485    0.40067    0.18914   1.00
H1       0.22136    0.59944    0.30542   1.00
C5       0.26757    0.39465    0.32146   1.00
H1       0.26580    0.47253    0.31067   1.00
H1       0.22105    0.52770    0.30573   1.00
H2       0.24465    0.40163    0.34332   1.00
H2       0.26704    0.36253    0.31697   1.00
N1       0.30601    0.40605    0.33611   1.00
C6       0.31663    0.44190    0.34817   1.00
C6       0.33712    0.38243    0.34037   1.00
C6       0.35506    0.44127    0.36011   1.00
C6       0.36809    0.40344    0.35514   1.00
H3       0.29768    0.46719    0.34837   1.00
H3       0.33742    0.35169    0.33306   1.00
H3       0.37171    0.46564    0.37125   1.00
H3       0.39693    0.39242    0.36159   1.00
H2       0.28019    0.63772    0.18979   1.00
H2       0.31546    0.59999    0.18199   1.00
N1       0.26447    0.59477    0.14830   1.00
C6       0.24308    0.61922    0.12262   1.00
C6       0.26341    0.55715    0.13098   1.00
C6       0.22985    0.59723    0.09157   1.00
C6       0.24232    0.55909    0.09671   1.00
H3       0.23801    0.65008    0.12699   1.00
H3       0.27675    0.53124    0.14317   1.00
H3       0.21263    0.60795    0.06741   1.00
H3       0.23646    0.53495    0.07727   1.00
C4       0.25004    0.75038    0.02085   1.00
C4       0.24996    0.74962    -0.02085   1.00
C3       0.21868    0.76635    0.04249   1.00
C3       0.21584    0.74125    -0.04252   1.00
C3       0.28127    0.73434    0.04262   1.00
C3       0.28404    0.75811    -0.04259   1.00
C2       0.24984    0.75002    0.10518   1.00
C2       0.24984    0.75002    -0.10518   1.00
C3a      0.21845    0.76626    0.08401   1.00
C3       0.21586    0.74145    -0.08382   1.00
C3       0.28110    0.73419    0.08389   1.00
C3a      0.28418    0.75834    -0.08403   1.00
H1       0.19435    0.77927    0.02706   1.00
H1       0.18897    0.73414    -0.02750   1.00
C5       0.18463    0.78370    0.10590   1.00
H1       0.18914    0.73485    -0.09933   1.00
H1       0.30542    0.72136    0.09944   1.00
C5       0.32146    0.76757    -0.10535   1.00
H1       0.31067    0.76580    -0.02747   1.00
H1       0.30573    0.72105    0.02770   1.00
H2       0.34332    0.74465    -0.09837   1.00
H2       0.31697    0.76704    -0.13747   1.00
N1       0.33611    0.80601    -0.09395   1.00
C6       0.34817    0.81663    -0.05810   1.00
C6       0.34037    0.83712    -0.11757   1.00
C6       0.36011    0.85506    -0.05873   1.00
C6       0.35514    0.86809    -0.09656   1.00
H3       0.34837    0.79768    -0.03281   1.00
H3       0.33306    0.83742    -0.14831   1.00
H3       0.37125    0.87171    -0.03436   1.00
H3       0.36159    0.89693    -0.10758   1.00
H2       0.18979    0.78019    0.13772   1.00
H2       0.18199    0.81546    0.09999   1.00
N1       0.14830    0.76447    0.09477   1.00
C6       0.12262    0.74308    0.11922   1.00
C6       0.13098    0.76341    0.05715   1.00
C6       0.09157    0.72985    0.09723   1.00
C6       0.09671    0.74232    0.05909   1.00
H3       0.12699    0.73801    0.15008   1.00
H3       0.14317    0.77675    0.03124   1.00
H3       0.06741    0.71263    0.10795   1.00
H3       0.07727    0.73646    0.03495   1.00
C4       0.75004    0.24962    0.47915   1.00
C4       0.74996    0.25038    0.52085   1.00
C3       0.71868    0.23365    0.45751   1.00
C3       0.71584    0.25875    0.54252   1.00
C3       0.78127    0.26566    0.45738   1.00
C3       0.78404    0.24189    0.54259   1.00
C2       0.74984    0.24998    0.39482   1.00
C2       0.74984    0.24998    0.60518   1.00
C3a      0.71845    0.23374    0.41599   1.00
C3       0.71586    0.25855    0.58382   1.00
C3       0.78110    0.26581    0.41611   1.00
C3a      0.78418    0.24166    0.58403   1.00
H1       0.69435    0.22073    0.47294   1.00
H1       0.68897    0.26586    0.52750   1.00
C5       0.68463    0.21630    0.39410   1.00
H1       0.68914    0.26515    0.59933   1.00
H1       0.80542    0.27864    0.40056   1.00
C5       0.82146    0.23243    0.60535   1.00
H1       0.81067    0.23420    0.52747   1.00
H1       0.80573    0.27895    0.47230   1.00
H2       0.84332    0.25535    0.59837   1.00
H2       0.81697    0.23296    0.63747   1.00
N1       0.83611    0.19399    0.59395   1.00
C6       0.84817    0.18337    0.55810   1.00
C6       0.84037    0.16288    0.61757   1.00
C6       0.86011    0.14494    0.55873   1.00
C6       0.85514    0.13191    0.59656   1.00
H3       0.84837    0.20232    0.53281   1.00
H3       0.83306    0.16258    0.64831   1.00
H3       0.87125    0.12829    0.53436   1.00
H3       0.86159    0.10307    0.60758   1.00
H2       0.68979    0.21981    0.36228   1.00
H2       0.68199    0.18454    0.40001   1.00
N1       0.64830    0.23553    0.40523   1.00
C6       0.62262    0.25692    0.38078   1.00
C6       0.63098    0.23659    0.44285   1.00
C6       0.59157    0.27015    0.40277   1.00
C6       0.59671    0.25768    0.44091   1.00
H3       0.62699    0.26199    0.34992   1.00
H3       0.64317    0.22325    0.46876   1.00
H3       0.56741    0.28737    0.39205   1.00
H3       0.57727    0.26354    0.46505   1.00
C4       0.74962    0.47915    0.25004   1.00
C4       0.75038    0.52085    0.24996   1.00
C3       0.73365    0.45751    0.21868   1.00
C3       0.75875    0.54252    0.21584   1.00
C3       0.76566    0.45738    0.28127   1.00
C3       0.74189    0.54259    0.28404   1.00
C2       0.74998    0.39482    0.24984   1.00
C2       0.74998    0.60518    0.24984   1.00
C3a      0.73374    0.41599    0.21845   1.00
C3       0.75855    0.58382    0.21586   1.00
C3       0.76581    0.41611    0.28110   1.00
C3a      0.74166    0.58403    0.28418   1.00
H1       0.72073    0.47294    0.19435   1.00
H1       0.76586    0.52750    0.18897   1.00
C5       0.71630    0.39410    0.18463   1.00
H1       0.76515    0.59933    0.18914   1.00
H1       0.77864    0.40056    0.30542   1.00
C5       0.73243    0.60535    0.32146   1.00
H1       0.73420    0.52747    0.31067   1.00
H1       0.77895    0.47230    0.30573   1.00
H2       0.75535    0.59837    0.34332   1.00
H2       0.73296    0.63747    0.31697   1.00
N1       0.69399    0.59395    0.33611   1.00
C6       0.68337    0.55810    0.34817   1.00
C6       0.66288    0.61757    0.34037   1.00
C6       0.64494    0.55873    0.36011   1.00
C6       0.63191    0.59656    0.35514   1.00
H3       0.70232    0.53281    0.34837   1.00
H3       0.66258    0.64831    0.33306   1.00
H3       0.62829    0.53436    0.37125   1.00
H3       0.60307    0.60758    0.36159   1.00
H2       0.71981    0.36228    0.18979   1.00
H2       0.68454    0.40001    0.18199   1.00
N1       0.73553    0.40523    0.14830   1.00
C6       0.75692    0.38078    0.12262   1.00
C6       0.73659    0.44285    0.13098   1.00
C6       0.77015    0.40277    0.09157   1.00
C6       0.75768    0.44091    0.09671   1.00
H3       0.76199    0.34992    0.12699   1.00
H3       0.72325    0.46876    0.14317   1.00
H3       0.78737    0.39205    0.06741   1.00
H3       0.76354    0.46505    0.07727   1.00
C4       0.52085    0.25004    0.25038   1.00
C4       0.47915    0.24996    0.24962   1.00
C3       0.54249    0.21868    0.26635   1.00
C3       0.45748    0.21584    0.24125   1.00
C3       0.54262    0.28127    0.23434   1.00
C3       0.45741    0.28404    0.25811   1.00
C2       0.60518    0.24984    0.25002   1.00
C2       0.39482    0.24984    0.25002   1.00
C3a      0.58401    0.21845    0.26626   1.00
C3       0.41618    0.21586    0.24145   1.00
C3       0.58389    0.28110    0.23419   1.00
C3a      0.41597    0.28418    0.25834   1.00
H1       0.52706    0.19435    0.27927   1.00
H1       0.47250    0.18897    0.23414   1.00
C5       0.60590    0.18463    0.28370   1.00
H1       0.40067    0.18914    0.23485   1.00
H1       0.59944    0.30542    0.22136   1.00
C5       0.39465    0.32146    0.26757   1.00
H1       0.47253    0.31067    0.26580   1.00
H1       0.52770    0.30573    0.22105   1.00
H2       0.40163    0.34332    0.24465   1.00
H2       0.36253    0.31697    0.26704   1.00
N1       0.40605    0.33611    0.30601   1.00
C6       0.44190    0.34817    0.31663   1.00
C6       0.38243    0.34037    0.33712   1.00
C6       0.44127    0.36011    0.35506   1.00
C6       0.40344    0.35514    0.36809   1.00
H3       0.46719    0.34837    0.29768   1.00
H3       0.35169    0.33306    0.33742   1.00
H3       0.46564    0.37125    0.37171   1.00
H3       0.39242    0.36159    0.39693   1.00
H2       0.63772    0.18979    0.28019   1.00
H2       0.59999    0.18199    0.31546   1.00
N1       0.59477    0.14830    0.26447   1.00
C6       0.61922    0.12262    0.24308   1.00
C6       0.55715    0.13098    0.26341   1.00
C6       0.59723    0.09157    0.22985   1.00
C6       0.55909    0.09671    0.24232   1.00
H3       0.65008    0.12699    0.23801   1.00
H3       0.53124    0.14317    0.27675   1.00
H3       0.60795    0.06741    0.21263   1.00
H3       0.53495    0.07727    0.23646   1.00
C4       0.97915    0.25004    0.24962   1.00
C4       1.02085    0.24996    0.25038   1.00
C3       0.95751    0.21868    0.23365   1.00
C3       1.04252    0.21584    0.25875   1.00
C3       0.95738    0.28127    0.26566   1.00
C3       1.04259    0.28404    0.24189   1.00
C2       0.89482    0.24984    0.24998   1.00
C2       1.10518    0.24984    0.24998   1.00
C3a      0.91599    0.21845    0.23374   1.00
C3       1.08382    0.21586    0.25855   1.00
C3       0.91611    0.28110    0.26581   1.00
C3a      1.08403    0.28418    0.24166   1.00
H1       0.97294    0.19435    0.22073   1.00
H1       1.02750    0.18897    0.26586   1.00
C5       0.89410    0.18463    0.21630   1.00
H1       1.09933    0.18914    0.26515   1.00
H1       0.90056    0.30542    0.27864   1.00
C5       1.10535    0.32146    0.23243   1.00
H1       1.02747    0.31067    0.23420   1.00
H1       0.97230    0.30573    0.27895   1.00
H2       1.09837    0.34332    0.25535   1.00
H2       1.13747    0.31697    0.23296   1.00
N1       1.09395    0.33611    0.19399   1.00
C6       1.05810    0.34817    0.18337   1.00
C6       1.11757    0.34037    0.16288   1.00
C6       1.05873    0.36011    0.14494   1.00
C6       1.09656    0.35514    0.13191   1.00
H3       1.03281    0.34837    0.20232   1.00
H3       1.14831    0.33306    0.16258   1.00
H3       1.03436    0.37125    0.12829   1.00
H3       1.10758    0.36159    0.10307   1.00
H2       0.86228    0.18979    0.21981   1.00
H2       0.90001    0.18199    0.18454   1.00
N1       0.90523    0.14830    0.23553   1.00
C6       0.88078    0.12262    0.25692   1.00
C6       0.94285    0.13098    0.23659   1.00
C6       0.90277    0.09157    0.27015   1.00
C6       0.94091    0.09671    0.25768   1.00
H3       0.84992    0.12699    0.26199   1.00
H3       0.96876    0.14317    0.22325   1.00
H3       0.89205    0.06741    0.28737   1.00
H3       0.96505    0.07727    0.26354   1.00
C4       0.75038    0.02085    0.25004   1.00
C4       0.74962    -0.02085   0.24996   1.00
C3       0.76635    0.04249    0.21868   1.00
C3       0.74125    -0.04252   0.21584   1.00
C3       0.73434    0.04262    0.28127   1.00
C3       0.75811    -0.04259   0.28404   1.00
C2       0.75002    0.10518    0.24984   1.00
C2       0.75002    -0.10518   0.24984   1.00
C3a      0.76626    0.08401    0.21845   1.00
C3       0.74145    -0.08382   0.21586   1.00
C3       0.73419    0.08389    0.28110   1.00
C3a      0.75834    -0.08403   0.28418   1.00
H1       0.77927    0.02706    0.19435   1.00
H1       0.73414    -0.02750   0.18897   1.00
C5       0.78370    0.10590    0.18463   1.00
H1       0.73485    -0.09933   0.18914   1.00
H1       0.72136    0.09944    0.30542   1.00
C5       0.76757    -0.10535   0.32146   1.00
H1       0.76580    -0.02747   0.31067   1.00
H1       0.72105    0.02770    0.30573   1.00
H2       0.74465    -0.09837   0.34332   1.00
H2       0.76704    -0.13747   0.31697   1.00
N1       0.80601    -0.09395   0.33611   1.00
C6       0.81663    -0.05810   0.34817   1.00
C6       0.83712    -0.11757   0.34037   1.00
C6       0.85506    -0.05873   0.36011   1.00
C6       0.86809    -0.09656   0.35514   1.00
H3       0.79768    -0.03281   0.34837   1.00
H3       0.83742    -0.14831   0.33306   1.00
H3       0.87171    -0.03436   0.37125   1.00
H3       0.89693    -0.10758   0.36159   1.00
H2       0.78019    0.13772    0.18979   1.00
H2       0.81546    0.09999    0.18199   1.00
N1       0.76447    0.09477    0.14830   1.00
C6       0.74308    0.11922    0.12262   1.00
C6       0.76341    0.05715    0.13098   1.00
C6       0.72985    0.09723    0.09157   1.00
C6       0.74232    0.05909    0.09671   1.00
H3       0.73801    0.15008    0.12699   1.00
H3       0.77675    0.03124    0.14317   1.00
H3       0.71263    0.10795    0.06741   1.00
H3       0.73646    0.03495    0.07727   1.00
C4       0.75004    0.25038    0.02085   1.00
C4       0.74996    0.24962    -0.02085   1.00
C3       0.71868    0.26635    0.04249   1.00
C3       0.71584    0.24125    -0.04252   1.00
C3       0.78127    0.23434    0.04262   1.00
C3       0.78404    0.25811    -0.04259   1.00
C2       0.74984    0.25002    0.10518   1.00
C2       0.74984    0.25002    -0.10518   1.00
C3a      0.71845    0.26626    0.08401   1.00
C3       0.71586    0.24145    -0.08382   1.00
C3       0.78110    0.23419    0.08389   1.00
C3a      0.78418    0.25834    -0.08403   1.00
H1       0.69435    0.27927    0.02706   1.00
H1       0.68897    0.23414    -0.02750   1.00
C5       0.68463    0.28370    0.10590   1.00
H1       0.68914    0.23485    -0.09933   1.00
H1       0.80542    0.22136    0.09944   1.00
C5       0.82146    0.26757    -0.10535   1.00
H1       0.81067    0.26580    -0.02747   1.00
H1       0.80573    0.22105    0.02770   1.00
H2       0.84332    0.24465    -0.09837   1.00
H2       0.81697    0.26704    -0.13747   1.00
N1       0.83611    0.30601    -0.09395   1.00
C6       0.84817    0.31663    -0.05810   1.00
C6       0.84037    0.33712    -0.11757   1.00
C6       0.86011    0.35506    -0.05873   1.00
C6       0.85514    0.36809    -0.09656   1.00
H3       0.84837    0.29768    -0.03281   1.00
H3       0.83306    0.33742    -0.14831   1.00
H3       0.87125    0.37171    -0.03436   1.00
H3       0.86159    0.39693    -0.10758   1.00
H2       0.68979    0.28019    0.13772   1.00
H2       0.68199    0.31546    0.09999   1.00
N1       0.64830    0.26447    0.09477   1.00
C6       0.62262    0.24308    0.11922   1.00
C6       0.63098    0.26341    0.05715   1.00
C6       0.59157    0.22985    0.09723   1.00
C6       0.59671    0.24232    0.05909   1.00
H3       0.62699    0.23801    0.15008   1.00
H3       0.64317    0.27675    0.03124   1.00
H3       0.56741    0.21263    0.10795   1.00
H3       0.57727    0.23646    0.03495   1.00
C4       1.00004    0.99962    1.22915   1.00
C4       0.99996    1.00038    1.27085   1.00
C3       0.96868    0.98365    1.20751   1.00
C3       0.96584    1.00875    1.29252   1.00
C3       1.03127    1.01566    1.20738   1.00
C3       1.03404    0.99189    1.29259   1.00
C2       0.99984    0.99998    1.14482   1.00
C2       0.99984    0.99998    1.35518   1.00
C3a      0.96845    0.98374    1.16599   1.00
C3       0.96586    1.00855    1.33382   1.00
C3       1.03110    1.01581    1.16611   1.00
C3a      1.03418    0.99166    1.33403   1.00
H1       0.94435    0.97073    1.22294   1.00
H1       0.93897    1.01586    1.27750   1.00
C5       0.93463    0.96630    1.14410   1.00
H1       0.93914    1.01515    1.34933   1.00
H1       1.05542    1.02864    1.15056   1.00
C5       1.07146    0.98243    1.35535   1.00
H1       1.06067    0.98420    1.27747   1.00
H1       1.05573    1.02895    1.22230   1.00
H2       1.09332    1.00535    1.34837   1.00
H2       1.06697    0.98296    1.38747   1.00
N1       1.08611    0.94399    1.34395   1.00
C6       1.09817    0.93337    1.30810   1.00
C6       1.09037    0.91288    1.36757   1.00
C6       1.11011    0.89494    1.30873   1.00
C6       1.10514    0.88191    1.34656   1.00
H3       1.09837    0.95232    1.28281   1.00
H3       1.08306    0.91258    1.39831   1.00
H3       1.12125    0.87829    1.28436   1.00
H3       1.11159    0.85307    1.35758   1.00
H2       0.93979    0.96981    1.11228   1.00
H2       0.93199    0.93454    1.15001   1.00
N1       0.89830    0.98553    1.15523   1.00
C6       0.87262    1.00692    1.13078   1.00
C6       0.88098    0.98659    1.19285   1.00
C6       0.84157    1.02015    1.15277   1.00
C6       0.84671    1.00768    1.19091   1.00
H3       0.87699    1.01199    1.09992   1.00
H3       0.89317    0.97325    1.21876   1.00
H3       0.81741    1.03737    1.14205   1.00
H3       0.82727    1.01354    1.21505   1.00
C4       0.99962    1.22915    1.00004   1.00
C4       1.00038    1.27085    0.99996   1.00
C3       0.98365    1.20751    0.96868   1.00
C3       1.00875    1.29252    0.96584   1.00
C3       1.01566    1.20738    1.03127   1.00
C3       0.99189    1.29259    1.03404   1.00
C2       0.99998    1.14482    0.99984   1.00
C2       0.99998    1.35518    0.99984   1.00
C3a      0.98374    1.16599    0.96845   1.00
C3       1.00855    1.33382    0.96586   1.00
C3       1.01581    1.16611    1.03110   1.00
C3a      0.99166    1.33403    1.03418   1.00
H1       0.97073    1.22294    0.94435   1.00
H1       1.01586    1.27750    0.93897   1.00
C5       0.96630    1.14410    0.93463   1.00
H1       1.01515    1.34933    0.93914   1.00
H1       1.02864    1.15056    1.05542   1.00
C5       0.98243    1.35535    1.07146   1.00
H1       0.98420    1.27747    1.06067   1.00
H1       1.02895    1.22230    1.05573   1.00
H2       1.00535    1.34837    1.09332   1.00
H2       0.98296    1.38747    1.06697   1.00
N1       0.94399    1.34395    1.08611   1.00
C6       0.93337    1.30810    1.09817   1.00
C6       0.91288    1.36757    1.09037   1.00
C6       0.89494    1.30873    1.11011   1.00
C6       0.88191    1.34656    1.10514   1.00
H3       0.95232    1.28281    1.09837   1.00
H3       0.91258    1.39831    1.08306   1.00
H3       0.87829    1.28436    1.12125   1.00
H3       0.85307    1.35758    1.11159   1.00
H2       0.96981    1.11228    0.93979   1.00
H2       0.93454    1.15001    0.93199   1.00
N1       0.98553    1.15523    0.89830   1.00
C6       1.00692    1.13078    0.87262   1.00
C6       0.98659    1.19285    0.88098   1.00
C6       1.02015    1.15277    0.84157   1.00
C6       1.00768    1.19091    0.84671   1.00
H3       1.01199    1.09992    0.87699   1.00
H3       0.97325    1.21876    0.89317   1.00
H3       1.03737    1.14205    0.81741   1.00
H3       1.01354    1.21505    0.82727   1.00
C4       0.77085    1.00004    1.00038   1.00
C4       0.72915    0.99996    0.99962   1.00
C3       0.79249    0.96868    1.01635   1.00
C3       0.70748    0.96584    0.99125   1.00
C3       0.79262    1.03127    0.98434   1.00
C3       0.70741    1.03404    1.00811   1.00
C2       0.85518    0.99984    1.00002   1.00
C2       0.64482    0.99984    1.00002   1.00
C3a      0.83401    0.96845    1.01626   1.00
C3       0.66618    0.96586    0.99145   1.00
C3       0.83389    1.03110    0.98419   1.00
C3a      0.66597    1.03418    1.00834   1.00
H1       0.77706    0.94435    1.02927   1.00
H1       0.72250    0.93897    0.98414   1.00
C5       0.85590    0.93463    1.03370   1.00
H1       0.65067    0.93914    0.98485   1.00
H1       0.84944    1.05542    0.97136   1.00
C5       0.64465    1.07146    1.01757   1.00
H1       0.72253    1.06067    1.01580   1.00
H1       0.77770    1.05573    0.97105   1.00
H2       0.65163    1.09332    0.99465   1.00
H2       0.61253    1.06697    1.01704   1.00
N1       0.65605    1.08611    1.05601   1.00
C6       0.69190    1.09817    1.06663   1.00
C6       0.63243    1.09037    1.08712   1.00
C6       0.69127    1.11011    1.10506   1.00
C6       0.65344    1.10514    1.11809   1.00
H3       0.71719    1.09837    1.04768   1.00
H3       0.60169    1.08306    1.08742   1.00
H3       0.71564    1.12125    1.12171   1.00
H3       0.64242    1.11159    1.14693   1.00
H2       0.88772    0.93979    1.03019   1.00
H2       0.84999    0.93199    1.06546   1.00
N1       0.84477    0.89830    1.01447   1.00
C6       0.86922    0.87262    0.99308   1.00
C6       0.80715    0.88098    1.01341   1.00
C6       0.84723    0.84157    0.97985   1.00
C6       0.80909    0.84671    0.99232   1.00
H3       0.90008    0.87699    0.98801   1.00
H3       0.78124    0.89317    1.02675   1.00
H3       0.85795    0.81741    0.96263   1.00
H3       0.78495    0.82727    0.98646   1.00
C4       1.22915    1.00004    0.99962   1.00
C4       1.27085    0.99996    1.00038   1.00
C3       1.20751    0.96868    0.98365   1.00
C3       1.29252    0.96584    1.00875   1.00
C3       1.20738    1.03127    1.01566   1.00
C3       1.29259    1.03404    0.99189   1.00
C2       1.14482    0.99984    0.99998   1.00
C2       1.35518    0.99984    0.99998   1.00
C3a      1.16599    0.96845    0.98374   1.00
C3       1.33382    0.96586    1.00855   1.00
C3       1.16611    1.03110    1.01581   1.00
C3a      1.33403    1.03418    0.99166   1.00
H1       1.22294    0.94435    0.97073   1.00
H1       1.27750    0.93897    1.01586   1.00
C5       1.14410    0.93463    0.96630   1.00
H1       1.34933    0.93914    1.01515   1.00
H1       1.15056    1.05542    1.02864   1.00
C5       1.35535    1.07146    0.98243   1.00
H1       1.27747    1.06067    0.98420   1.00
H1       1.22230    1.05573    1.02895   1.00
H2       1.34837    1.09332    1.00535   1.00
H2       1.38747    1.06697    0.98296   1.00
N1       1.34395    1.08611    0.94399   1.00
C6       1.30810    1.09817    0.93337   1.00
C6       1.36757    1.09037    0.91288   1.00
C6       1.30873    1.11011    0.89494   1.00
C6       1.34656    1.10514    0.88191   1.00
H3       1.28281    1.09837    0.95232   1.00
H3       1.39831    1.08306    0.91258   1.00
H3       1.28436    1.12125    0.87829   1.00
H3       1.35758    1.11159    0.85307   1.00
H2       1.11228    0.93979    0.96981   1.00
H2       1.15001    0.93199    0.93454   1.00
N1       1.15523    0.89830    0.98553   1.00
C6       1.13078    0.87262    1.00692   1.00
C6       1.19285    0.88098    0.98659   1.00
C6       1.15277    0.84157    1.02015   1.00
C6       1.19091    0.84671    1.00768   1.00
H3       1.09992    0.87699    1.01199   1.00
H3       1.21876    0.89317    0.97325   1.00
H3       1.14205    0.81741    1.03737   1.00
H3       1.21505    0.82727    1.01354   1.00
C4       1.00038    0.77085    1.00004   1.00
C4       0.99962    0.72915    0.99996   1.00
C3       1.01635    0.79249    0.96868   1.00
C3       0.99125    0.70748    0.96584   1.00
C3       0.98434    0.79262    1.03127   1.00
C3       1.00811    0.70741    1.03404   1.00
C2       1.00002    0.85518    0.99984   1.00
C2       1.00002    0.64482    0.99984   1.00
C3a      1.01626    0.83401    0.96845   1.00
C3       0.99145    0.66618    0.96586   1.00
C3       0.98419    0.83389    1.03110   1.00
C3a      1.00834    0.66597    1.03418   1.00
H1       1.02927    0.77706    0.94435   1.00
H1       0.98414    0.72250    0.93897   1.00
C5       1.03370    0.85590    0.93463   1.00
H1       0.98485    0.65067    0.93914   1.00
H1       0.97136    0.84944    1.05542   1.00
C5       1.01757    0.64465    1.07146   1.00
H1       1.01580    0.72253    1.06067   1.00
H1       0.97105    0.77770    1.05573   1.00
H2       0.99465    0.65163    1.09332   1.00
H2       1.01704    0.61253    1.06697   1.00
N1       1.05601    0.65605    1.08611   1.00
C6       1.06663    0.69190    1.09817   1.00
C6       1.08712    0.63243    1.09037   1.00
C6       1.10506    0.69127    1.11011   1.00
C6       1.11809    0.65344    1.10514   1.00
H3       1.04768    0.71719    1.09837   1.00
H3       1.08742    0.60169    1.08306   1.00
H3       1.12171    0.71564    1.12125   1.00
H3       1.14693    0.64242    1.11159   1.00
H2       1.03019    0.88772    0.93979   1.00
H2       1.06546    0.84999    0.93199   1.00
N1       1.01447    0.84477    0.89830   1.00
C6       0.99308    0.86922    0.87262   1.00
C6       1.01341    0.80715    0.88098   1.00
C6       0.97985    0.84723    0.84157   1.00
C6       0.99232    0.80909    0.84671   1.00
H3       0.98801    0.90008    0.87699   1.00
H3       1.02675    0.78124    0.89317   1.00
H3       0.96263    0.85795    0.81741   1.00
H3       0.98646    0.78495    0.82727   1.00
C4       1.00004    1.00038    0.77085   1.00
C4       0.99996    0.99962    0.72915   1.00
C3       0.96868    1.01635    0.79249   1.00
C3       0.96584    0.99125    0.70748   1.00
C3       1.03127    0.98434    0.79262   1.00
C3       1.03404    1.00811    0.70741   1.00
C2       0.99984    1.00002    0.85518   1.00
C2       0.99984    1.00002    0.64482   1.00
C3a      0.96845    1.01626    0.83401   1.00
C3       0.96586    0.99145    0.66618   1.00
C3       1.03110    0.98419    0.83389   1.00
C3a      1.03418    1.00834    0.66597   1.00
H1       0.94435    1.02927    0.77706   1.00
H1       0.93897    0.98414    0.72250   1.00
C5       0.93463    1.03370    0.85590   1.00
H1       0.93914    0.98485    0.65067   1.00
H1       1.05542    0.97136    0.84944   1.00
C5       1.07146    1.01757    0.64465   1.00
H1       1.06067    1.01580    0.72253   1.00
H1       1.05573    0.97105    0.77770   1.00
H2       1.09332    0.99465    0.65163   1.00
H2       1.06697    1.01704    0.61253   1.00
N1       1.08611    1.05601    0.65605   1.00
C6       1.09817    1.06663    0.69190   1.00
C6       1.09037    1.08712    0.63243   1.00
C6       1.11011    1.10506    0.69127   1.00
C6       1.10514    1.11809    0.65344   1.00
H3       1.09837    1.04768    0.71719   1.00
H3       1.08306    1.08742    0.60169   1.00
H3       1.12125    1.12171    0.71564   1.00
H3       1.11159    1.14693    0.64242   1.00
H2       0.93979    1.03019    0.88772   1.00
H2       0.93199    1.06546    0.84999   1.00
N1       0.89830    1.01447    0.84477   1.00
C6       0.87262    0.99308    0.86922   1.00
C6       0.88098    1.01341    0.80715   1.00
C6       0.84157    0.97985    0.84723   1.00
C6       0.84671    0.99232    0.80909   1.00
H3       0.87699    0.98801    0.90008   1.00
H3       0.89317    1.02675    0.78124   1.00
H3       0.81741    0.96263    0.85795   1.00
H3       0.82727    0.98646    0.78495   1.00
C4       0.50004    0.49962    1.22915   1.00
C4       0.49996    0.50038    1.27085   1.00
C3       0.46868    0.48365    1.20751   1.00
C3       0.46584    0.50875    1.29252   1.00
C3       0.53127    0.51566    1.20738   1.00
C3       0.53404    0.49189    1.29259   1.00
C2       0.49984    0.49998    1.14482   1.00
C2       0.49984    0.49998    1.35518   1.00
C3a      0.46845    0.48374    1.16599   1.00
C3       0.46586    0.50855    1.33382   1.00
C3       0.53110    0.51581    1.16611   1.00
C3a      0.53418    0.49166    1.33403   1.00
H1       0.44435    0.47073    1.22294   1.00
H1       0.43897    0.51586    1.27750   1.00
C5       0.43463    0.46630    1.14410   1.00
H1       0.43914    0.51515    1.34933   1.00
H1       0.55542    0.52864    1.15056   1.00
C5       0.57146    0.48243    1.35535   1.00
H1       0.56067    0.48420    1.27747   1.00
H1       0.55573    0.52895    1.22230   1.00
H2       0.59332    0.50535    1.34837   1.00
H2       0.56697    0.48296    1.38747   1.00
N1       0.58611    0.44399    1.34395   1.00
C6       0.59817    0.43337    1.30810   1.00
C6       0.59037    0.41288    1.36757   1.00
C6       0.61011    0.39494    1.30873   1.00
C6       0.60514    0.38191    1.34656   1.00
H3       0.59837    0.45232    1.28281   1.00
H3       0.58306    0.41258    1.39831   1.00
H3       0.62125    0.37829    1.28436   1.00
H3       0.61159    0.35307    1.35758   1.00
H2       0.43979    0.46981    1.11228   1.00
H2       0.43199    0.43454    1.15001   1.00
N1       0.39830    0.48553    1.15523   1.00
C6       0.37262    0.50692    1.13078   1.00
C6       0.38098    0.48659    1.19285   1.00
C6       0.34157    0.52015    1.15277   1.00
C6       0.34671    0.50768    1.19091   1.00
H3       0.37699    0.51199    1.09992   1.00
H3       0.39317    0.47325    1.21876   1.00
H3       0.31741    0.53737    1.14205   1.00
H3       0.32727    0.51354    1.21505   1.00
C4       0.49962    0.72915    1.00004   1.00
C4       0.50038    0.77085    0.99996   1.00
C3       0.48365    0.70751    0.96868   1.00
C3       0.50875    0.79252    0.96584   1.00
C3       0.51566    0.70738    1.03127   1.00
C3       0.49189    0.79259    1.03404   1.00
C2       0.49998    0.64482    0.99984   1.00
C2       0.49998    0.85518    0.99984   1.00
C3a      0.48374    0.66599    0.96845   1.00
C3       0.50855    0.83382    0.96586   1.00
C3       0.51581    0.66611    1.03110   1.00
C3a      0.49166    0.83403    1.03418   1.00
H1       0.47073    0.72294    0.94435   1.00
H1       0.51586    0.77750    0.93897   1.00
C5       0.46630    0.64410    0.93463   1.00
H1       0.51515    0.84933    0.93914   1.00
H1       0.52864    0.65056    1.05542   1.00
C5       0.48243    0.85535    1.07146   1.00
H1       0.48420    0.77747    1.06067   1.00
H1       0.52895    0.72230    1.05573   1.00
H2       0.50535    0.84837    1.09332   1.00
H2       0.48296    0.88747    1.06697   1.00
N1       0.44399    0.84395    1.08611   1.00
C6       0.43337    0.80810    1.09817   1.00
C6       0.41288    0.86757    1.09037   1.00
C6       0.39494    0.80873    1.11011   1.00
C6       0.38191    0.84656    1.10514   1.00
H3       0.45232    0.78281    1.09837   1.00
H3       0.41258    0.89831    1.08306   1.00
H3       0.37829    0.78436    1.12125   1.00
H3       0.35307    0.85758    1.11159   1.00
H2       0.46981    0.61228    0.93979   1.00
H2       0.43454    0.65001    0.93199   1.00
N1       0.48553    0.65523    0.89830   1.00
C6       0.50692    0.63078    0.87262   1.00
C6       0.48659    0.69285    0.88098   1.00
C6       0.52015    0.65277    0.84157   1.00
C6       0.50768    0.69091    0.84671   1.00
H3       0.51199    0.59992    0.87699   1.00
H3       0.47325    0.71876    0.89317   1.00
H3       0.53737    0.64205    0.81741   1.00
H3       0.51354    0.71505    0.82727   1.00
C4       0.27085    0.50004    1.00038   1.00
C4       0.22915    0.49996    0.99962   1.00
C3       0.29249    0.46868    1.01635   1.00
C3       0.20748    0.46584    0.99125   1.00
C3       0.29262    0.53127    0.98434   1.00
C3       0.20741    0.53404    1.00811   1.00
C2       0.35518    0.49984    1.00002   1.00
C2       0.14482    0.49984    1.00002   1.00
C3a      0.33401    0.46845    1.01626   1.00
C3       0.16618    0.46586    0.99145   1.00
C3       0.33389    0.53110    0.98419   1.00
C3a      0.16597    0.53418    1.00834   1.00
H1       0.27706    0.44435    1.02927   1.00
H1       0.22250    0.43897    0.98414   1.00
C5       0.35590    0.43463    1.03370   1.00
H1       0.15067    0.43914    0.98485   1.00
H1       0.34944    0.55542    0.97136   1.00
C5       0.14465    0.57146    1.01757   1.00
H1       0.22253    0.56067    1.01580   1.00
H1       0.27770    0.55573    0.97105   1.00
H2       0.15163    0.59332    0.99465   1.00
H2       0.11253    0.56697    1.01704   1.00
N1       0.15605    0.58611    1.05601   1.00
C6       0.19190    0.59817    1.06663   1.00
C6       0.13243    0.59037    1.08712   1.00
C6       0.19127    0.61011    1.10506   1.00
C6       0.15344    0.60514    1.11809   1.00
H3       0.21719    0.59837    1.04768   1.00
H3       0.10169    0.58306    1.08742   1.00
H3       0.21564    0.62125    1.12171   1.00
H3       0.14242    0.61159    1.14693   1.00
H2       0.38772    0.43979    1.03019   1.00
H2       0.34999    0.43199    1.06546   1.00
N1       0.34477    0.39830    1.01447   1.00
C6       0.36922    0.37262    0.99308   1.00
C6       0.30715    0.38098    1.01341   1.00
C6       0.34723    0.34157    0.97985   1.00
C6       0.30909    0.34671    0.99232   1.00
H3       0.40008    0.37699    0.98801   1.00
H3       0.28124    0.39317    1.02675   1.00
H3       0.35795    0.31741    0.96263   1.00
H3       0.28495    0.32727    0.98646   1.00
C4       0.72915    0.50004    0.99962   1.00
C4       0.77085    0.49996    1.00038   1.00
C3       0.70751    0.46868    0.98365   1.00
C3       0.79252    0.46584    1.00875   1.00
C3       0.70738    0.53127    1.01566   1.00
C3       0.79259    0.53404    0.99189   1.00
C2       0.64482    0.49984    0.99998   1.00
C2       0.85518    0.49984    0.99998   1.00
C3a      0.66599    0.46845    0.98374   1.00
C3       0.83382    0.46586    1.00855   1.00
C3       0.66611    0.53110    1.01581   1.00
C3a      0.83403    0.53418    0.99166   1.00
H1       0.72294    0.44435    0.97073   1.00
H1       0.77750    0.43897    1.01586   1.00
C5       0.64410    0.43463    0.96630   1.00
H1       0.84933    0.43914    1.01515   1.00
H1       0.65056    0.55542    1.02864   1.00
C5       0.85535    0.57146    0.98243   1.00
H1       0.77747    0.56067    0.98420   1.00
H1       0.72230    0.55573    1.02895   1.00
H2       0.84837    0.59332    1.00535   1.00
H2       0.88747    0.56697    0.98296   1.00
N1       0.84395    0.58611    0.94399   1.00
C6       0.80810    0.59817    0.93337   1.00
C6       0.86757    0.59037    0.91288   1.00
C6       0.80873    0.61011    0.89494   1.00
C6       0.84656    0.60514    0.88191   1.00
H3       0.78281    0.59837    0.95232   1.00
H3       0.89831    0.58306    0.91258   1.00
H3       0.78436    0.62125    0.87829   1.00
H3       0.85758    0.61159    0.85307   1.00
H2       0.61228    0.43979    0.96981   1.00
H2       0.65001    0.43199    0.93454   1.00
N1       0.65523    0.39830    0.98553   1.00
C6       0.63078    0.37262    1.00692   1.00
C6       0.69285    0.38098    0.98659   1.00
C6       0.65277    0.34157    1.02015   1.00
C6       0.69091    0.34671    1.00768   1.00
H3       0.59992    0.37699    1.01199   1.00
H3       0.71876    0.39317    0.97325   1.00
H3       0.64205    0.31741    1.03737   1.00
H3       0.71505    0.32727    1.01354   1.00
C4       0.50038    0.27085    1.00004   1.00
C4       0.49962    0.22915    0.99996   1.00
C3       0.51635    0.29249    0.96868   1.00
C3       0.49125    0.20748    0.96584   1.00
C3       0.48434    0.29262    1.03127   1.00
C3       0.50811    0.20741    1.03404   1.00
C2       0.50002    0.35518    0.99984   1.00
C2       0.50002    0.14482    0.99984   1.00
C3a      0.51626    0.33401    0.96845   1.00
C3       0.49145    0.16618    0.96586   1.00
C3       0.48419    0.33389    1.03110   1.00
C3a      0.50834    0.16597    1.03418   1.00
H1       0.52927    0.27706    0.94435   1.00
H1       0.48414    0.22250    0.93897   1.00
C5       0.53370    0.35590    0.93463   1.00
H1       0.48485    0.15067    0.93914   1.00
H1       0.47136    0.34944    1.05542   1.00
C5       0.51757    0.14465    1.07146   1.00
H1       0.51580    0.22253    1.06067   1.00
H1       0.47105    0.27770    1.05573   1.00
H2       0.49465    0.15163    1.09332   1.00
H2       0.51704    0.11253    1.06697   1.00
N1       0.55601    0.15605    1.08611   1.00
C6       0.56663    0.19190    1.09817   1.00
C6       0.58712    0.13243    1.09037   1.00
C6       0.60506    0.19127    1.11011   1.00
C6       0.61809    0.15344    1.10514   1.00
H3       0.54768    0.21719    1.09837   1.00
H3       0.58742    0.10169    1.08306   1.00
H3       0.62171    0.21564    1.12125   1.00
H3       0.64693    0.14242    1.11159   1.00
H2       0.53019    0.38772    0.93979   1.00
H2       0.56546    0.34999    0.93199   1.00
N1       0.51447    0.34477    0.89830   1.00
C6       0.49308    0.36922    0.87262   1.00
C6       0.51341    0.30715    0.88098   1.00
C6       0.47985    0.34723    0.84157   1.00
C6       0.49232    0.30909    0.84671   1.00
H3       0.48801    0.40008    0.87699   1.00
H3       0.52675    0.28124    0.89317   1.00
H3       0.46263    0.35795    0.81741   1.00
H3       0.48646    0.28495    0.82727   1.00
C4       0.50004    0.50038    0.77085   1.00
C4       0.49996    0.49962    0.72915   1.00
C3       0.46868    0.51635    0.79249   1.00
C3       0.46584    0.49125    0.70748   1.00
C3       0.53127    0.48434    0.79262   1.00
C3       0.53404    0.50811    0.70741   1.00
C2       0.49984    0.50002    0.85518   1.00
C2       0.49984    0.50002    0.64482   1.00
C3a      0.46845    0.51626    0.83401   1.00
C3       0.46586    0.49145    0.66618   1.00
C3       0.53110    0.48419    0.83389   1.00
C3a      0.53418    0.50834    0.66597   1.00
H1       0.44435    0.52927    0.77706   1.00
H1       0.43897    0.48414    0.72250   1.00
C5       0.43463    0.53370    0.85590   1.00
H1       0.43914    0.48485    0.65067   1.00
H1       0.55542    0.47136    0.84944   1.00
C5       0.57146    0.51757    0.64465   1.00
H1       0.56067    0.51580    0.72253   1.00
H1       0.55573    0.47105    0.77770   1.00
H2       0.59332    0.49465    0.65163   1.00
H2       0.56697    0.51704    0.61253   1.00
N1       0.58611    0.55601    0.65605   1.00
C6       0.59817    0.56663    0.69190   1.00
C6       0.59037    0.58712    0.63243   1.00
C6       0.61011    0.60506    0.69127   1.00
C6       0.60514    0.61809    0.65344   1.00
H3       0.59837    0.54768    0.71719   1.00
H3       0.58306    0.58742    0.60169   1.00
H3       0.62125    0.62171    0.71564   1.00
H3       0.61159    0.64693    0.64242   1.00
H2       0.43979    0.53019    0.88772   1.00
H2       0.43199    0.56546    0.84999   1.00
N1       0.39830    0.51447    0.84477   1.00
C6       0.37262    0.49308    0.86922   1.00
C6       0.38098    0.51341    0.80715   1.00
C6       0.34157    0.47985    0.84723   1.00
C6       0.34671    0.49232    0.80909   1.00
H3       0.37699    0.48801    0.90008   1.00
H3       0.39317    0.52675    0.78124   1.00
H3       0.31741    0.46263    0.85795   1.00
H3       0.32727    0.48646    0.78495   1.00
C4       0.50004    0.99962    0.72915   1.00
C4       0.49996    1.00038    0.77085   1.00
C3       0.46868    0.98365    0.70751   1.00
C3       0.46584    1.00875    0.79252   1.00
C3       0.53127    1.01566    0.70738   1.00
C3       0.53404    0.99189    0.79259   1.00
C2       0.49984    0.99998    0.64482   1.00
C2       0.49984    0.99998    0.85518   1.00
C3a      0.46845    0.98374    0.66599   1.00
C3       0.46586    1.00855    0.83382   1.00
C3       0.53110    1.01581    0.66611   1.00
C3a      0.53418    0.99166    0.83403   1.00
H1       0.44435    0.97073    0.72294   1.00
H1       0.43897    1.01586    0.77750   1.00
C5       0.43463    0.96630    0.64410   1.00
H1       0.43914    1.01515    0.84933   1.00
H1       0.55542    1.02864    0.65056   1.00
C5       0.57146    0.98243    0.85535   1.00
H1       0.56067    0.98420    0.77747   1.00
H1       0.55573    1.02895    0.72230   1.00
H2       0.59332    1.00535    0.84837   1.00
H2       0.56697    0.98296    0.88747   1.00
N1       0.58611    0.94399    0.84395   1.00
C6       0.59817    0.93337    0.80810   1.00
C6       0.59037    0.91288    0.86757   1.00
C6       0.61011    0.89494    0.80873   1.00
C6       0.60514    0.88191    0.84656   1.00
H3       0.59837    0.95232    0.78281   1.00
H3       0.58306    0.91258    0.89831   1.00
H3       0.62125    0.87829    0.78436   1.00
H3       0.61159    0.85307    0.85758   1.00
H2       0.43979    0.96981    0.61228   1.00
H2       0.43199    0.93454    0.65001   1.00
N1       0.39830    0.98553    0.65523   1.00
C6       0.37262    1.00692    0.63078   1.00
C6       0.38098    0.98659    0.69285   1.00
C6       0.34157    1.02015    0.65277   1.00
C6       0.34671    1.00768    0.69091   1.00
H3       0.37699    1.01199    0.59992   1.00
H3       0.39317    0.97325    0.71876   1.00
H3       0.31741    1.03737    0.64205   1.00
H3       0.32727    1.01354    0.71505   1.00
C4       0.49962    1.22915    0.50004   1.00
C4       0.50038    1.27085    0.49996   1.00
C3       0.48365    1.20751    0.46868   1.00
C3       0.50875    1.29252    0.46584   1.00
C3       0.51566    1.20738    0.53127   1.00
C3       0.49189    1.29259    0.53404   1.00
C2       0.49998    1.14482    0.49984   1.00
C2       0.49998    1.35518    0.49984   1.00
C3a      0.48374    1.16599    0.46845   1.00
C3       0.50855    1.33382    0.46586   1.00
C3       0.51581    1.16611    0.53110   1.00
C3a      0.49166    1.33403    0.53418   1.00
H1       0.47073    1.22294    0.44435   1.00
H1       0.51586    1.27750    0.43897   1.00
C5       0.46630    1.14410    0.43463   1.00
H1       0.51515    1.34933    0.43914   1.00
H1       0.52864    1.15056    0.55542   1.00
C5       0.48243    1.35535    0.57146   1.00
H1       0.48420    1.27747    0.56067   1.00
H1       0.52895    1.22230    0.55573   1.00
H2       0.50535    1.34837    0.59332   1.00
H2       0.48296    1.38747    0.56697   1.00
N1       0.44399    1.34395    0.58611   1.00
C6       0.43337    1.30810    0.59817   1.00
C6       0.41288    1.36757    0.59037   1.00
C6       0.39494    1.30873    0.61011   1.00
C6       0.38191    1.34656    0.60514   1.00
H3       0.45232    1.28281    0.59837   1.00
H3       0.41258    1.39831    0.58306   1.00
H3       0.37829    1.28436    0.62125   1.00
H3       0.35307    1.35758    0.61159   1.00
H2       0.46981    1.11228    0.43979   1.00
H2       0.43454    1.15001    0.43199   1.00
N1       0.48553    1.15523    0.39830   1.00
C6       0.50692    1.13078    0.37262   1.00
C6       0.48659    1.19285    0.38098   1.00
C6       0.52015    1.15277    0.34157   1.00
C6       0.50768    1.19091    0.34671   1.00
H3       0.51199    1.09992    0.37699   1.00
H3       0.47325    1.21876    0.39317   1.00
H3       0.53737    1.14205    0.31741   1.00
H3       0.51354    1.21505    0.32727   1.00
C4       0.27085    1.00004    0.50038   1.00
C4       0.22915    0.99996    0.49962   1.00
C3       0.29249    0.96868    0.51635   1.00
C3       0.20748    0.96584    0.49125   1.00
C3       0.29262    1.03127    0.48434   1.00
C3       0.20741    1.03404    0.50811   1.00
C2       0.35518    0.99984    0.50002   1.00
C2       0.14482    0.99984    0.50002   1.00
C3a      0.33401    0.96845    0.51626   1.00
C3       0.16618    0.96586    0.49145   1.00
C3       0.33389    1.03110    0.48419   1.00
C3a      0.16597    1.03418    0.50834   1.00
H1       0.27706    0.94435    0.52927   1.00
H1       0.22250    0.93897    0.48414   1.00
C5       0.35590    0.93463    0.53370   1.00
H1       0.15067    0.93914    0.48485   1.00
H1       0.34944    1.05542    0.47136   1.00
C5       0.14465    1.07146    0.51757   1.00
H1       0.22253    1.06067    0.51580   1.00
H1       0.27770    1.05573    0.47105   1.00
H2       0.15163    1.09332    0.49465   1.00
H2       0.11253    1.06697    0.51704   1.00
N1       0.15605    1.08611    0.55601   1.00
C6       0.19190    1.09817    0.56663   1.00
C6       0.13243    1.09037    0.58712   1.00
C6       0.19127    1.11011    0.60506   1.00
C6       0.15344    1.10514    0.61809   1.00
H3       0.21719    1.09837    0.54768   1.00
H3       0.10169    1.08306    0.58742   1.00
H3       0.21564    1.12125    0.62171   1.00
H3       0.14242    1.11159    0.64693   1.00
H2       0.38772    0.93979    0.53019   1.00
H2       0.34999    0.93199    0.56546   1.00
N1       0.34477    0.89830    0.51447   1.00
C6       0.36922    0.87262    0.49308   1.00
C6       0.30715    0.88098    0.51341   1.00
C6       0.34723    0.84157    0.47985   1.00
C6       0.30909    0.84671    0.49232   1.00
H3       0.40008    0.87699    0.48801   1.00
H3       0.28124    0.89317    0.52675   1.00
H3       0.35795    0.81741    0.46263   1.00
H3       0.28495    0.82727    0.48646   1.00
C4       0.72915    1.00004    0.49962   1.00
C4       0.77085    0.99996    0.50038   1.00
C3       0.70751    0.96868    0.48365   1.00
C3       0.79252    0.96584    0.50875   1.00
C3       0.70738    1.03127    0.51566   1.00
C3       0.79259    1.03404    0.49189   1.00
C2       0.64482    0.99984    0.49998   1.00
C2       0.85518    0.99984    0.49998   1.00
C3a      0.66599    0.96845    0.48374   1.00
C3       0.83382    0.96586    0.50855   1.00
C3       0.66611    1.03110    0.51581   1.00
C3a      0.83403    1.03418    0.49166   1.00
H1       0.72294    0.94435    0.47073   1.00
H1       0.77750    0.93897    0.51586   1.00
C5       0.64410    0.93463    0.46630   1.00
H1       0.84933    0.93914    0.51515   1.00
H1       0.65056    1.05542    0.52864   1.00
C5       0.85535    1.07146    0.48243   1.00
H1       0.77747    1.06067    0.48420   1.00
H1       0.72230    1.05573    0.52895   1.00
H2       0.84837    1.09332    0.50535   1.00
H2       0.88747    1.06697    0.48296   1.00
N1       0.84395    1.08611    0.44399   1.00
C6       0.80810    1.09817    0.43337   1.00
C6       0.86757    1.09037    0.41288   1.00
C6       0.80873    1.11011    0.39494   1.00
C6       0.84656    1.10514    0.38191   1.00
H3       0.78281    1.09837    0.45232   1.00
H3       0.89831    1.08306    0.41258   1.00
H3       0.78436    1.12125    0.37829   1.00
H3       0.85758    1.11159    0.35307   1.00
H2       0.61228    0.93979    0.46981   1.00
H2       0.65001    0.93199    0.43454   1.00
N1       0.65523    0.89830    0.48553   1.00
C6       0.63078    0.87262    0.50692   1.00
C6       0.69285    0.88098    0.48659   1.00
C6       0.65277    0.84157    0.52015   1.00
C6       0.69091    0.84671    0.50768   1.00
H3       0.59992    0.87699    0.51199   1.00
H3       0.71876    0.89317    0.47325   1.00
H3       0.64205    0.81741    0.53737   1.00
H3       0.71505    0.82727    0.51354   1.00
C4       0.50038    0.77085    0.50004   1.00
C4       0.49962    0.72915    0.49996   1.00
C3       0.51635    0.79249    0.46868   1.00
C3       0.49125    0.70748    0.46584   1.00
C3       0.48434    0.79262    0.53127   1.00
C3       0.50811    0.70741    0.53404   1.00
C2       0.50002    0.85518    0.49984   1.00
C2       0.50002    0.64482    0.49984   1.00
C3a      0.51626    0.83401    0.46845   1.00
C3       0.49145    0.66618    0.46586   1.00
C3       0.48419    0.83389    0.53110   1.00
C3a      0.50834    0.66597    0.53418   1.00
H1       0.52927    0.77706    0.44435   1.00
H1       0.48414    0.72250    0.43897   1.00
C5       0.53370    0.85590    0.43463   1.00
H1       0.48485    0.65067    0.43914   1.00
H1       0.47136    0.84944    0.55542   1.00
C5       0.51757    0.64465    0.57146   1.00
H1       0.51580    0.72253    0.56067   1.00
H1       0.47105    0.77770    0.55573   1.00
H2       0.49465    0.65163    0.59332   1.00
H2       0.51704    0.61253    0.56697   1.00
N1       0.55601    0.65605    0.58611   1.00
C6       0.56663    0.69190    0.59817   1.00
C6       0.58712    0.63243    0.59037   1.00
C6       0.60506    0.69127    0.61011   1.00
C6       0.61809    0.65344    0.60514   1.00
H3       0.54768    0.71719    0.59837   1.00
H3       0.58742    0.60169    0.58306   1.00
H3       0.62171    0.71564    0.62125   1.00
H3       0.64693    0.64242    0.61159   1.00
H2       0.53019    0.88772    0.43979   1.00
H2       0.56546    0.84999    0.43199   1.00
N1       0.51447    0.84477    0.39830   1.00
C6       0.49308    0.86922    0.37262   1.00
C6       0.51341    0.80715    0.38098   1.00
C6       0.47985    0.84723    0.34157   1.00
C6       0.49232    0.80909    0.34671   1.00
H3       0.48801    0.90008    0.37699   1.00
H3       0.52675    0.78124    0.39317   1.00
H3       0.46263    0.85795    0.31741   1.00
H3       0.48646    0.78495    0.32727   1.00
C4       0.50004    1.00038    0.27085   1.00
C4       0.49996    0.99962    0.22915   1.00
C3       0.46868    1.01635    0.29249   1.00
C3       0.46584    0.99125    0.20748   1.00
C3       0.53127    0.98434    0.29262   1.00
C3       0.53404    1.00811    0.20741   1.00
C2       0.49984    1.00002    0.35518   1.00
C2       0.49984    1.00002    0.14482   1.00
C3a      0.46845    1.01626    0.33401   1.00
C3       0.46586    0.99145    0.16618   1.00
C3       0.53110    0.98419    0.33389   1.00
C3a      0.53418    1.00834    0.16597   1.00
H1       0.44435    1.02927    0.27706   1.00
H1       0.43897    0.98414    0.22250   1.00
C5       0.43463    1.03370    0.35590   1.00
H1       0.43914    0.98485    0.15067   1.00
H1       0.55542    0.97136    0.34944   1.00
C5       0.57146    1.01757    0.14465   1.00
H1       0.56067    1.01580    0.22253   1.00
H1       0.55573    0.97105    0.27770   1.00
H2       0.59332    0.99465    0.15163   1.00
H2       0.56697    1.01704    0.11253   1.00
N1       0.58611    1.05601    0.15605   1.00
C6       0.59817    1.06663    0.19190   1.00
C6       0.59037    1.08712    0.13243   1.00
C6       0.61011    1.10506    0.19127   1.00
C6       0.60514    1.11809    0.15344   1.00
H3       0.59837    1.04768    0.21719   1.00
H3       0.58306    1.08742    0.10169   1.00
H3       0.62125    1.12171    0.21564   1.00
H3       0.61159    1.14693    0.14242   1.00
H2       0.43979    1.03019    0.38772   1.00
H2       0.43199    1.06546    0.34999   1.00
N1       0.39830    1.01447    0.34477   1.00
C6       0.37262    0.99308    0.36922   1.00
C6       0.38098    1.01341    0.30715   1.00
C6       0.34157    0.97985    0.34723   1.00
C6       0.34671    0.99232    0.30909   1.00
H3       0.37699    0.98801    0.40008   1.00
H3       0.39317    1.02675    0.28124   1.00
H3       0.31741    0.96263    0.35795   1.00
H3       0.32727    0.98646    0.28495   1.00
C4       1.00004    0.49962    0.72915   1.00
C4       0.99996    0.50038    0.77085   1.00
C3       0.96868    0.48365    0.70751   1.00
C3       0.96584    0.50875    0.79252   1.00
C3       1.03127    0.51566    0.70738   1.00
C3       1.03404    0.49189    0.79259   1.00
C2       0.99984    0.49998    0.64482   1.00
C2       0.99984    0.49998    0.85518   1.00
C3a      0.96845    0.48374    0.66599   1.00
C3       0.96586    0.50855    0.83382   1.00
C3       1.03110    0.51581    0.66611   1.00
C3a      1.03418    0.49166    0.83403   1.00
H1       0.94435    0.47073    0.72294   1.00
H1       0.93897    0.51586    0.77750   1.00
C5       0.93463    0.46630    0.64410   1.00
H1       0.93914    0.51515    0.84933   1.00
H1       1.05542    0.52864    0.65056   1.00
C5       1.07146    0.48243    0.85535   1.00
H1       1.06067    0.48420    0.77747   1.00
H1       1.05573    0.52895    0.72230   1.00
H2       1.09332    0.50535    0.84837   1.00
H2       1.06697    0.48296    0.88747   1.00
N1       1.08611    0.44399    0.84395   1.00
C6       1.09817    0.43337    0.80810   1.00
C6       1.09037    0.41288    0.86757   1.00
C6       1.11011    0.39494    0.80873   1.00
C6       1.10514    0.38191    0.84656   1.00
H3       1.09837    0.45232    0.78281   1.00
H3       1.08306    0.41258    0.89831   1.00
H3       1.12125    0.37829    0.78436   1.00
H3       1.11159    0.35307    0.85758   1.00
H2       0.93979    0.46981    0.61228   1.00
H2       0.93199    0.43454    0.65001   1.00
N1       0.89830    0.48553    0.65523   1.00
C6       0.87262    0.50692    0.63078   1.00
C6       0.88098    0.48659    0.69285   1.00
C6       0.84157    0.52015    0.65277   1.00
C6       0.84671    0.50768    0.69091   1.00
H3       0.87699    0.51199    0.59992   1.00
H3       0.89317    0.47325    0.71876   1.00
H3       0.81741    0.53737    0.64205   1.00
H3       0.82727    0.51354    0.71505   1.00
C4       0.99962    0.72915    0.50004   1.00
C4       1.00038    0.77085    0.49996   1.00
C3       0.98365    0.70751    0.46868   1.00
C3       1.00875    0.79252    0.46584   1.00
C3       1.01566    0.70738    0.53127   1.00
C3       0.99189    0.79259    0.53404   1.00
C2       0.99998    0.64482    0.49984   1.00
C2       0.99998    0.85518    0.49984   1.00
C3a      0.98374    0.66599    0.46845   1.00
C3       1.00855    0.83382    0.46586   1.00
C3       1.01581    0.66611    0.53110   1.00
C3a      0.99166    0.83403    0.53418   1.00
H1       0.97073    0.72294    0.44435   1.00
H1       1.01586    0.77750    0.43897   1.00
C5       0.96630    0.64410    0.43463   1.00
H1       1.01515    0.84933    0.43914   1.00
H1       1.02864    0.65056    0.55542   1.00
C5       0.98243    0.85535    0.57146   1.00
H1       0.98420    0.77747    0.56067   1.00
H1       1.02895    0.72230    0.55573   1.00
H2       1.00535    0.84837    0.59332   1.00
H2       0.98296    0.88747    0.56697   1.00
N1       0.94399    0.84395    0.58611   1.00
C6       0.93337    0.80810    0.59817   1.00
C6       0.91288    0.86757    0.59037   1.00
C6       0.89494    0.80873    0.61011   1.00
C6       0.88191    0.84656    0.60514   1.00
H3       0.95232    0.78281    0.59837   1.00
H3       0.91258    0.89831    0.58306   1.00
H3       0.87829    0.78436    0.62125   1.00
H3       0.85307    0.85758    0.61159   1.00
H2       0.96981    0.61228    0.43979   1.00
H2       0.93454    0.65001    0.43199   1.00
N1       0.98553    0.65523    0.39830   1.00
C6       1.00692    0.63078    0.37262   1.00
C6       0.98659    0.69285    0.38098   1.00
C6       1.02015    0.65277    0.34157   1.00
C6       1.00768    0.69091    0.34671   1.00
H3       1.01199    0.59992    0.37699   1.00
H3       0.97325    0.71876    0.39317   1.00
H3       1.03737    0.64205    0.31741   1.00
H3       1.01354    0.71505    0.32727   1.00
C4       0.77085    0.50004    0.50038   1.00
C4       0.72915    0.49996    0.49962   1.00
C3       0.79249    0.46868    0.51635   1.00
C3       0.70748    0.46584    0.49125   1.00
C3       0.79262    0.53127    0.48434   1.00
C3       0.70741    0.53404    0.50811   1.00
C2       0.85518    0.49984    0.50002   1.00
C2       0.64482    0.49984    0.50002   1.00
C3a      0.83401    0.46845    0.51626   1.00
C3       0.66618    0.46586    0.49145   1.00
C3       0.83389    0.53110    0.48419   1.00
C3a      0.66597    0.53418    0.50834   1.00
H1       0.77706    0.44435    0.52927   1.00
H1       0.72250    0.43897    0.48414   1.00
C5       0.85590    0.43463    0.53370   1.00
H1       0.65067    0.43914    0.48485   1.00
H1       0.84944    0.55542    0.47136   1.00
C5       0.64465    0.57146    0.51757   1.00
H1       0.72253    0.56067    0.51580   1.00
H1       0.77770    0.55573    0.47105   1.00
H2       0.65163    0.59332    0.49465   1.00
H2       0.61253    0.56697    0.51704   1.00
N1       0.65605    0.58611    0.55601   1.00
C6       0.69190    0.59817    0.56663   1.00
C6       0.63243    0.59037    0.58712   1.00
C6       0.69127    0.61011    0.60506   1.00
C6       0.65344    0.60514    0.61809   1.00
H3       0.71719    0.59837    0.54768   1.00
H3       0.60169    0.58306    0.58742   1.00
H3       0.71564    0.62125    0.62171   1.00
H3       0.64242    0.61159    0.64693   1.00
H2       0.88772    0.43979    0.53019   1.00
H2       0.84999    0.43199    0.56546   1.00
N1       0.84477    0.39830    0.51447   1.00
C6       0.86922    0.37262    0.49308   1.00
C6       0.80715    0.38098    0.51341   1.00
C6       0.84723    0.34157    0.47985   1.00
C6       0.80909    0.34671    0.49232   1.00
H3       0.90008    0.37699    0.48801   1.00
H3       0.78124    0.39317    0.52675   1.00
H3       0.85795    0.31741    0.46263   1.00
H3       0.78495    0.32727    0.48646   1.00
C4       1.22915    0.50004    0.49962   1.00
C4       1.27085    0.49996    0.50038   1.00
C3       1.20751    0.46868    0.48365   1.00
C3       1.29252    0.46584    0.50875   1.00
C3       1.20738    0.53127    0.51566   1.00
C3       1.29259    0.53404    0.49189   1.00
C2       1.14482    0.49984    0.49998   1.00
C2       1.35518    0.49984    0.49998   1.00
C3a      1.16599    0.46845    0.48374   1.00
C3       1.33382    0.46586    0.50855   1.00
C3       1.16611    0.53110    0.51581   1.00
C3a      1.33403    0.53418    0.49166   1.00
H1       1.22294    0.44435    0.47073   1.00
H1       1.27750    0.43897    0.51586   1.00
C5       1.14410    0.43463    0.46630   1.00
H1       1.34933    0.43914    0.51515   1.00
H1       1.15056    0.55542    0.52864   1.00
C5       1.35535    0.57146    0.48243   1.00
H1       1.27747    0.56067    0.48420   1.00
H1       1.22230    0.55573    0.52895   1.00
H2       1.34837    0.59332    0.50535   1.00
H2       1.38747    0.56697    0.48296   1.00
N1       1.34395    0.58611    0.44399   1.00
C6       1.30810    0.59817    0.43337   1.00
C6       1.36757    0.59037    0.41288   1.00
C6       1.30873    0.61011    0.39494   1.00
C6       1.34656    0.60514    0.38191   1.00
H3       1.28281    0.59837    0.45232   1.00
H3       1.39831    0.58306    0.41258   1.00
H3       1.28436    0.62125    0.37829   1.00
H3       1.35758    0.61159    0.35307   1.00
H2       1.11228    0.43979    0.46981   1.00
H2       1.15001    0.43199    0.43454   1.00
N1       1.15523    0.39830    0.48553   1.00
C6       1.13078    0.37262    0.50692   1.00
C6       1.19285    0.38098    0.48659   1.00
C6       1.15277    0.34157    0.52015   1.00
C6       1.19091    0.34671    0.50768   1.00
H3       1.09992    0.37699    0.51199   1.00
H3       1.21876    0.39317    0.47325   1.00
H3       1.14205    0.31741    0.53737   1.00
H3       1.21505    0.32727    0.51354   1.00
C4       1.00038    0.27085    0.50004   1.00
C4       0.99962    0.22915    0.49996   1.00
C3       1.01635    0.29249    0.46868   1.00
C3       0.99125    0.20748    0.46584   1.00
C3       0.98434    0.29262    0.53127   1.00
C3       1.00811    0.20741    0.53404   1.00
C2       1.00002    0.35518    0.49984   1.00
C2       1.00002    0.14482    0.49984   1.00
C3a      1.01626    0.33401    0.46845   1.00
C3       0.99145    0.16618    0.46586   1.00
C3       0.98419    0.33389    0.53110   1.00
C3a      1.00834    0.16597    0.53418   1.00
H1       1.02927    0.27706    0.44435   1.00
H1       0.98414    0.22250    0.43897   1.00
C5       1.03370    0.35590    0.43463   1.00
H1       0.98485    0.15067    0.43914   1.00
H1       0.97136    0.34944    0.55542   1.00
C5       1.01757    0.14465    0.57146   1.00
H1       1.01580    0.22253    0.56067   1.00
H1       0.97105    0.27770    0.55573   1.00
H2       0.99465    0.15163    0.59332   1.00
H2       1.01704    0.11253    0.56697   1.00
N1       1.05601    0.15605    0.58611   1.00
C6       1.06663    0.19190    0.59817   1.00
C6       1.08712    0.13243    0.59037   1.00
C6       1.10506    0.19127    0.61011   1.00
C6       1.11809    0.15344    0.60514   1.00
H3       1.04768    0.21719    0.59837   1.00
H3       1.08742    0.10169    0.58306   1.00
H3       1.12171    0.21564    0.62125   1.00
H3       1.14693    0.14242    0.61159   1.00
H2       1.03019    0.38772    0.43979   1.00
H2       1.06546    0.34999    0.43199   1.00
N1       1.01447    0.34477    0.39830   1.00
C6       0.99308    0.36922    0.37262   1.00
C6       1.01341    0.30715    0.38098   1.00
C6       0.97985    0.34723    0.34157   1.00
C6       0.99232    0.30909    0.34671   1.00
H3       0.98801    0.40008    0.37699   1.00
H3       1.02675    0.28124    0.39317   1.00
H3       0.96263    0.35795    0.31741   1.00
H3       0.98646    0.28495    0.32727   1.00
C4       1.00004    0.50038    0.27085   1.00
C4       0.99996    0.49962    0.22915   1.00
C3       0.96868    0.51635    0.29249   1.00
C3       0.96584    0.49125    0.20748   1.00
C3       1.03127    0.48434    0.29262   1.00
C3       1.03404    0.50811    0.20741   1.00
C2       0.99984    0.50002    0.35518   1.00
C2       0.99984    0.50002    0.14482   1.00
C3a      0.96845    0.51626    0.33401   1.00
C3       0.96586    0.49145    0.16618   1.00
C3       1.03110    0.48419    0.33389   1.00
C3a      1.03418    0.50834    0.16597   1.00
H1       0.94435    0.52927    0.27706   1.00
H1       0.93897    0.48414    0.22250   1.00
C5       0.93463    0.53370    0.35590   1.00
H1       0.93914    0.48485    0.15067   1.00
H1       1.05542    0.47136    0.34944   1.00
C5       1.07146    0.51757    0.14465   1.00
H1       1.06067    0.51580    0.22253   1.00
H1       1.05573    0.47105    0.27770   1.00
H2       1.09332    0.49465    0.15163   1.00
H2       1.06697    0.51704    0.11253   1.00
N1       1.08611    0.55601    0.15605   1.00
C6       1.09817    0.56663    0.19190   1.00
C6       1.09037    0.58712    0.13243   1.00
C6       1.11011    0.60506    0.19127   1.00
C6       1.10514    0.61809    0.15344   1.00
H3       1.09837    0.54768    0.21719   1.00
H3       1.08306    0.58742    0.10169   1.00
H3       1.12125    0.62171    0.21564   1.00
H3       1.11159    0.64693    0.14242   1.00
H2       0.93979    0.53019    0.38772   1.00
H2       0.93199    0.56546    0.34999   1.00
N1       0.89830    0.51447    0.34477   1.00
C6       0.87262    0.49308    0.36922   1.00
C6       0.88098    0.51341    0.30715   1.00
C6       0.84157    0.47985    0.34723   1.00
C6       0.84671    0.49232    0.30909   1.00
H3       0.87699    0.48801    0.40008   1.00
H3       0.89317    0.52675    0.28124   1.00
H3       0.81741    0.46263    0.35795   1.00
H3       0.82727    0.48646    0.28495   1.00
