data_IRMOF10_SG202_interpen_Ligand9lp_label_x.

_audit_creation_method             'generated by an auxiliary program of Tobunporous'

_symmetry_space_group_name_H-M     'P 1'
_symmetry_Int_Tables_number        1
_symmetry_cell_setting             triclinic

_cell_length_a                    34.2800
_cell_length_b                    34.2800
_cell_length_c                    34.2800
_cell_angle_alpha                 90.0000
_cell_angle_beta                  90.0000
_cell_angle_gamma                 90.0000

loop_
_atom_site_label
_atom_site_fract_x
_atom_site_fract_y
_atom_site_fract_z
_atom_site_occupancy
O1       0.75000    0.75000    0.75000   1.00
Zn1      0.71720    0.78280    0.78280   1.00
Zn1      0.78280    0.71720    0.78280   1.00
Zn1      0.78280    0.78280    0.71720   1.00
Zn1      0.71720    0.71720    0.71720   1.00
O2       0.72650    0.77350    0.83820   1.00
O2       0.72650    0.83820    0.77350   1.00
O2       0.66180    0.77350    0.77350   1.00
O2       0.77350    0.72650    0.83820   1.00
O2       0.83820    0.72650    0.77350   1.00
O2       0.77350    0.66180    0.77350   1.00
O2       0.77350    0.83820    0.72650   1.00
O2       0.83820    0.77350    0.72650   1.00
O2       0.77350    0.77350    0.66180   1.00
O2       0.66180    0.72650    0.72650   1.00
O2       0.72650    0.66180    0.72650   1.00
O2       0.72650    0.72650    0.66180   1.00
C1       0.75000    0.75000    0.85520   1.00
C1       0.75000    0.85520    0.75000   1.00
C1       0.64480    0.75000    0.75000   1.00
C1       0.85520    0.75000    0.75000   1.00
C1       0.75000    0.64480    0.75000   1.00
C1       0.75000    0.75000    0.64480   1.00
O1       0.25000    0.25000    0.75000   1.00
Zn1      0.21720    0.28280    0.78280   1.00
Zn1      0.28280    0.21720    0.78280   1.00
Zn1      0.28280    0.28280    0.71720   1.00
Zn1      0.21720    0.21720    0.71720   1.00
O2       0.22650    0.27350    0.83820   1.00
O2       0.22650    0.33820    0.77350   1.00
O2       0.16180    0.27350    0.77350   1.00
O2       0.27350    0.22650    0.83820   1.00
O2       0.33820    0.22650    0.77350   1.00
O2       0.27350    0.16180    0.77350   1.00
O2       0.27350    0.33820    0.72650   1.00
O2       0.33820    0.27350    0.72650   1.00
O2       0.27350    0.27350    0.66180   1.00
O2       0.16180    0.22650    0.72650   1.00
O2       0.22650    0.16180    0.72650   1.00
O2       0.22650    0.22650    0.66180   1.00
C1       0.25000    0.25000    0.85520   1.00
C1       0.25000    0.35520    0.75000   1.00
C1       0.14480    0.25000    0.75000   1.00
C1       0.35520    0.25000    0.75000   1.00
C1       0.25000    0.14480    0.75000   1.00
C1       0.25000    0.25000    0.64480   1.00
O1       0.25000    0.75000    0.25000   1.00
Zn1      0.21720    0.78280    0.28280   1.00
Zn1      0.28280    0.71720    0.28280   1.00
Zn1      0.28280    0.78280    0.21720   1.00
Zn1      0.21720    0.71720    0.21720   1.00
O2       0.22650    0.77350    0.33820   1.00
O2       0.22650    0.83820    0.27350   1.00
O2       0.16180    0.77350    0.27350   1.00
O2       0.27350    0.72650    0.33820   1.00
O2       0.33820    0.72650    0.27350   1.00
O2       0.27350    0.66180    0.27350   1.00
O2       0.27350    0.83820    0.22650   1.00
O2       0.33820    0.77350    0.22650   1.00
O2       0.27350    0.77350    0.16180   1.00
O2       0.16180    0.72650    0.22650   1.00
O2       0.22650    0.66180    0.22650   1.00
O2       0.22650    0.72650    0.16180   1.00
C1       0.25000    0.75000    0.35520   1.00
C1       0.25000    0.85520    0.25000   1.00
C1       0.14480    0.75000    0.25000   1.00
C1       0.35520    0.75000    0.25000   1.00
C1       0.25000    0.64480    0.25000   1.00
C1       0.25000    0.75000    0.14480   1.00
O1       0.75000    0.25000    0.25000   1.00
Zn1      0.71720    0.28280    0.28280   1.00
Zn1      0.78280    0.21720    0.28280   1.00
Zn1      0.78280    0.28280    0.21720   1.00
Zn1      0.71720    0.21720    0.21720   1.00
O2       0.72650    0.27350    0.33820   1.00
O2       0.72650    0.33820    0.27350   1.00
O2       0.66180    0.27350    0.27350   1.00
O2       0.77350    0.22650    0.33820   1.00
O2       0.83820    0.22650    0.27350   1.00
O2       0.77350    0.16180    0.27350   1.00
O2       0.77350    0.33820    0.22650   1.00
O2       0.83820    0.27350    0.22650   1.00
O2       0.77350    0.27350    0.16180   1.00
O2       0.66180    0.22650    0.22650   1.00
O2       0.72650    0.16180    0.22650   1.00
O2       0.72650    0.22650    0.16180   1.00
C1       0.75000    0.25000    0.35520   1.00
C1       0.75000    0.35520    0.25000   1.00
C1       0.64480    0.25000    0.25000   1.00
C1       0.85520    0.25000    0.25000   1.00
C1       0.75000    0.14480    0.25000   1.00
C1       0.75000    0.25000    0.14480   1.00
O1       0.25000    0.25000    0.25000   1.00
Zn1      0.28280    0.21720    0.21720   1.00
Zn1      0.21720    0.28280    0.21720   1.00
Zn1      0.21720    0.21720    0.28280   1.00
Zn1      0.28280    0.28280    0.28280   1.00
O2       0.27350    0.22650    0.16180   1.00
O2       0.27350    0.16180    0.22650   1.00
O2       0.33820    0.22650    0.22650   1.00
O2       0.22650    0.27350    0.16180   1.00
O2       0.16180    0.27350    0.22650   1.00
O2       0.22650    0.33820    0.22650   1.00
O2       0.22650    0.16180    0.27350   1.00
O2       0.16180    0.22650    0.27350   1.00
O2       0.22650    0.22650    0.33820   1.00
O2       0.33820    0.27350    0.27350   1.00
O2       0.27350    0.33820    0.27350   1.00
O2       0.27350    0.27350    0.33820   1.00
C1       0.25000    0.25000    0.14480   1.00
C1       0.25000    0.14480    0.25000   1.00
C1       0.35520    0.25000    0.25000   1.00
C1       0.14480    0.25000    0.25000   1.00
C1       0.25000    0.35520    0.25000   1.00
C1       0.25000    0.25000    0.35520   1.00
O1       0.75000    0.75000    0.25000   1.00
Zn1      0.78280    0.71720    0.21720   1.00
Zn1      0.71720    0.78280    0.21720   1.00
Zn1      0.71720    0.71720    0.28280   1.00
Zn1      0.78280    0.78280    0.28280   1.00
O2       0.77350    0.72650    0.16180   1.00
O2       0.77350    0.66180    0.22650   1.00
O2       0.83820    0.72650    0.22650   1.00
O2       0.72650    0.77350    0.16180   1.00
O2       0.66180    0.77350    0.22650   1.00
O2       0.72650    0.83820    0.22650   1.00
O2       0.72650    0.66180    0.27350   1.00
O2       0.66180    0.72650    0.27350   1.00
O2       0.72650    0.72650    0.33820   1.00
O2       0.83820    0.77350    0.27350   1.00
O2       0.77350    0.83820    0.27350   1.00
O2       0.77350    0.77350    0.33820   1.00
C1       0.75000    0.75000    0.14480   1.00
C1       0.75000    0.64480    0.25000   1.00
C1       0.85520    0.75000    0.25000   1.00
C1       0.64480    0.75000    0.25000   1.00
C1       0.75000    0.85520    0.25000   1.00
C1       0.75000    0.75000    0.35520   1.00
O1       0.75000    0.25000    0.75000   1.00
Zn1      0.78280    0.21720    0.71720   1.00
Zn1      0.71720    0.28280    0.71720   1.00
Zn1      0.71720    0.21720    0.78280   1.00
Zn1      0.78280    0.28280    0.78280   1.00
O2       0.77350    0.22650    0.66180   1.00
O2       0.77350    0.16180    0.72650   1.00
O2       0.83820    0.22650    0.72650   1.00
O2       0.72650    0.27350    0.66180   1.00
O2       0.66180    0.27350    0.72650   1.00
O2       0.72650    0.33820    0.72650   1.00
O2       0.72650    0.16180    0.77350   1.00
O2       0.66180    0.22650    0.77350   1.00
O2       0.72650    0.22650    0.83820   1.00
O2       0.83820    0.27350    0.77350   1.00
O2       0.77350    0.33820    0.77350   1.00
O2       0.77350    0.27350    0.83820   1.00
C1       0.75000    0.25000    0.64480   1.00
C1       0.75000    0.14480    0.75000   1.00
C1       0.85520    0.25000    0.75000   1.00
C1       0.64480    0.25000    0.75000   1.00
C1       0.75000    0.35520    0.75000   1.00
C1       0.75000    0.25000    0.85520   1.00
O1       0.25000    0.75000    0.75000   1.00
Zn1      0.28280    0.71720    0.71720   1.00
Zn1      0.21720    0.78280    0.71720   1.00
Zn1      0.21720    0.71720    0.78280   1.00
Zn1      0.28280    0.78280    0.78280   1.00
O2       0.27350    0.72650    0.66180   1.00
O2       0.27350    0.66180    0.72650   1.00
O2       0.33820    0.72650    0.72650   1.00
O2       0.22650    0.77350    0.66180   1.00
O2       0.16180    0.77350    0.72650   1.00
O2       0.22650    0.83820    0.72650   1.00
O2       0.22650    0.66180    0.77350   1.00
O2       0.16180    0.72650    0.77350   1.00
O2       0.22650    0.72650    0.83820   1.00
O2       0.33820    0.77350    0.77350   1.00
O2       0.27350    0.83820    0.77350   1.00
O2       0.27350    0.77350    0.83820   1.00
C1       0.25000    0.75000    0.64480   1.00
C1       0.25000    0.64480    0.75000   1.00
C1       0.35520    0.75000    0.75000   1.00
C1       0.14480    0.75000    0.75000   1.00
C1       0.25000    0.85520    0.75000   1.00
C1       0.25000    0.75000    0.85520   1.00
O1       1.00000    1.00000    1.00000   1.00
Zn1      0.96720    1.03280    1.03280   1.00
Zn1      1.03280    0.96720    1.03280   1.00
Zn1      1.03280    1.03280    0.96720   1.00
Zn1      0.96720    0.96720    0.96720   1.00
O2       0.97650    1.02350    1.08820   1.00
O2       0.97650    1.08820    1.02350   1.00
O2       0.91180    1.02350    1.02350   1.00
O2       1.02350    0.97650    1.08820   1.00
O2       1.08820    0.97650    1.02350   1.00
O2       1.02350    0.91180    1.02350   1.00
O2       1.02350    1.08820    0.97650   1.00
O2       1.08820    1.02350    0.97650   1.00
O2       1.02350    1.02350    0.91180   1.00
O2       0.91180    0.97650    0.97650   1.00
O2       0.97650    0.91180    0.97650   1.00
O2       0.97650    0.97650    0.91180   1.00
C1       1.00000    1.00000    1.10520   1.00
C1       1.00000    1.10520    1.00000   1.00
C1       0.89480    1.00000    1.00000   1.00
C1       1.10520    1.00000    1.00000   1.00
C1       1.00000    0.89480    1.00000   1.00
C1       1.00000    1.00000    0.89480   1.00
O1       0.50000    0.50000    1.00000   1.00
Zn1      0.46720    0.53280    1.03280   1.00
Zn1      0.53280    0.46720    1.03280   1.00
Zn1      0.53280    0.53280    0.96720   1.00
Zn1      0.46720    0.46720    0.96720   1.00
O2       0.47650    0.52350    1.08820   1.00
O2       0.47650    0.58820    1.02350   1.00
O2       0.41180    0.52350    1.02350   1.00
O2       0.52350    0.47650    1.08820   1.00
O2       0.58820    0.47650    1.02350   1.00
O2       0.52350    0.41180    1.02350   1.00
O2       0.52350    0.58820    0.97650   1.00
O2       0.58820    0.52350    0.97650   1.00
O2       0.52350    0.52350    0.91180   1.00
O2       0.41180    0.47650    0.97650   1.00
O2       0.47650    0.41180    0.97650   1.00
O2       0.47650    0.47650    0.91180   1.00
C1       0.50000    0.50000    1.10520   1.00
C1       0.50000    0.60520    1.00000   1.00
C1       0.39480    0.50000    1.00000   1.00
C1       0.60520    0.50000    1.00000   1.00
C1       0.50000    0.39480    1.00000   1.00
C1       0.50000    0.50000    0.89480   1.00
O1       0.50000    1.00000    0.50000   1.00
Zn1      0.46720    1.03280    0.53280   1.00
Zn1      0.53280    0.96720    0.53280   1.00
Zn1      0.53280    1.03280    0.46720   1.00
Zn1      0.46720    0.96720    0.46720   1.00
O2       0.47650    1.02350    0.58820   1.00
O2       0.47650    1.08820    0.52350   1.00
O2       0.41180    1.02350    0.52350   1.00
O2       0.52350    0.97650    0.58820   1.00
O2       0.58820    0.97650    0.52350   1.00
O2       0.52350    0.91180    0.52350   1.00
O2       0.52350    1.08820    0.47650   1.00
O2       0.58820    1.02350    0.47650   1.00
O2       0.52350    1.02350    0.41180   1.00
O2       0.41180    0.97650    0.47650   1.00
O2       0.47650    0.91180    0.47650   1.00
O2       0.47650    0.97650    0.41180   1.00
C1       0.50000    1.00000    0.60520   1.00
C1       0.50000    1.10520    0.50000   1.00
C1       0.39480    1.00000    0.50000   1.00
C1       0.60520    1.00000    0.50000   1.00
C1       0.50000    0.89480    0.50000   1.00
C1       0.50000    1.00000    0.39480   1.00
O1       1.00000    0.50000    0.50000   1.00
Zn1      0.96720    0.53280    0.53280   1.00
Zn1      1.03280    0.46720    0.53280   1.00
Zn1      1.03280    0.53280    0.46720   1.00
Zn1      0.96720    0.46720    0.46720   1.00
O2       0.97650    0.52350    0.58820   1.00
O2       0.97650    0.58820    0.52350   1.00
O2       0.91180    0.52350    0.52350   1.00
O2       1.02350    0.47650    0.58820   1.00
O2       1.08820    0.47650    0.52350   1.00
O2       1.02350    0.41180    0.52350   1.00
O2       1.02350    0.58820    0.47650   1.00
O2       1.08820    0.52350    0.47650   1.00
O2       1.02350    0.52350    0.41180   1.00
O2       0.91180    0.47650    0.47650   1.00
O2       0.97650    0.41180    0.47650   1.00
O2       0.97650    0.47650    0.41180   1.00
C1       1.00000    0.50000    0.60520   1.00
C1       1.00000    0.60520    0.50000   1.00
C1       0.89480    0.50000    0.50000   1.00
C1       1.10520    0.50000    0.50000   1.00
C1       1.00000    0.39480    0.50000   1.00
C1       1.00000    0.50000    0.39480   1.00
O1       0.50000    0.50000    0.50000   1.00
Zn1      0.53280    0.46720    0.46720   1.00
Zn1      0.46720    0.53280    0.46720   1.00
Zn1      0.46720    0.46720    0.53280   1.00
Zn1      0.53280    0.53280    0.53280   1.00
O2       0.52350    0.47650    0.41180   1.00
O2       0.52350    0.41180    0.47650   1.00
O2       0.58820    0.47650    0.47650   1.00
O2       0.47650    0.52350    0.41180   1.00
O2       0.41180    0.52350    0.47650   1.00
O2       0.47650    0.58820    0.47650   1.00
O2       0.47650    0.41180    0.52350   1.00
O2       0.41180    0.47650    0.52350   1.00
O2       0.47650    0.47650    0.58820   1.00
O2       0.58820    0.52350    0.52350   1.00
O2       0.52350    0.58820    0.52350   1.00
O2       0.52350    0.52350    0.58820   1.00
C1       0.50000    0.50000    0.39480   1.00
C1       0.50000    0.39480    0.50000   1.00
C1       0.60520    0.50000    0.50000   1.00
C1       0.39480    0.50000    0.50000   1.00
C1       0.50000    0.60520    0.50000   1.00
C1       0.50000    0.50000    0.60520   1.00
O1       1.00000    1.00000    0.50000   1.00
Zn1      1.03280    0.96720    0.46720   1.00
Zn1      0.96720    1.03280    0.46720   1.00
Zn1      0.96720    0.96720    0.53280   1.00
Zn1      1.03280    1.03280    0.53280   1.00
O2       1.02350    0.97650    0.41180   1.00
O2       1.02350    0.91180    0.47650   1.00
O2       1.08820    0.97650    0.47650   1.00
O2       0.97650    1.02350    0.41180   1.00
O2       0.91180    1.02350    0.47650   1.00
O2       0.97650    1.08820    0.47650   1.00
O2       0.97650    0.91180    0.52350   1.00
O2       0.91180    0.97650    0.52350   1.00
O2       0.97650    0.97650    0.58820   1.00
O2       1.08820    1.02350    0.52350   1.00
O2       1.02350    1.08820    0.52350   1.00
O2       1.02350    1.02350    0.58820   1.00
C1       1.00000    1.00000    0.39480   1.00
C1       1.00000    0.89480    0.50000   1.00
C1       1.10520    1.00000    0.50000   1.00
C1       0.89480    1.00000    0.50000   1.00
C1       1.00000    1.10520    0.50000   1.00
C1       1.00000    1.00000    0.60520   1.00
O1       1.00000    0.50000    1.00000   1.00
Zn1      1.03280    0.46720    0.96720   1.00
Zn1      0.96720    0.53280    0.96720   1.00
Zn1      0.96720    0.46720    1.03280   1.00
Zn1      1.03280    0.53280    1.03280   1.00
O2       1.02350    0.47650    0.91180   1.00
O2       1.02350    0.41180    0.97650   1.00
O2       1.08820    0.47650    0.97650   1.00
O2       0.97650    0.52350    0.91180   1.00
O2       0.91180    0.52350    0.97650   1.00
O2       0.97650    0.58820    0.97650   1.00
O2       0.97650    0.41180    1.02350   1.00
O2       0.91180    0.47650    1.02350   1.00
O2       0.97650    0.47650    1.08820   1.00
O2       1.08820    0.52350    1.02350   1.00
O2       1.02350    0.58820    1.02350   1.00
O2       1.02350    0.52350    1.08820   1.00
C1       1.00000    0.50000    0.89480   1.00
C1       1.00000    0.39480    1.00000   1.00
C1       1.10520    0.50000    1.00000   1.00
C1       0.89480    0.50000    1.00000   1.00
C1       1.00000    0.60520    1.00000   1.00
C1       1.00000    0.50000    1.10520   1.00
O1       0.50000    1.00000    1.00000   1.00
Zn1      0.53280    0.96720    0.96720   1.00
Zn1      0.46720    1.03280    0.96720   1.00
Zn1      0.46720    0.96720    1.03280   1.00
Zn1      0.53280    1.03280    1.03280   1.00
O2       0.52350    0.97650    0.91180   1.00
O2       0.52350    0.91180    0.97650   1.00
O2       0.58820    0.97650    0.97650   1.00
O2       0.47650    1.02350    0.91180   1.00
O2       0.41180    1.02350    0.97650   1.00
O2       0.47650    1.08820    0.97650   1.00
O2       0.47650    0.91180    1.02350   1.00
O2       0.41180    0.97650    1.02350   1.00
O2       0.47650    0.97650    1.08820   1.00
O2       0.58820    1.02350    1.02350   1.00
O2       0.52350    1.08820    1.02350   1.00
O2       0.52350    1.02350    1.08820   1.00
C1       0.50000    1.00000    0.89480   1.00
C1       0.50000    0.89480    1.00000   1.00
C1       0.60520    1.00000    1.00000   1.00
C1       0.39480    1.00000    1.00000   1.00
C1       0.50000    1.10520    1.00000   1.00
C1       0.50000    1.00000    1.10520   1.00
C4       0.74973    0.75073    0.97917   1.00
C4       0.75027    0.74927    1.02083   1.00
C3       0.75670    0.78580    0.95846   1.00
C3       0.77783    0.77033    1.04321   1.00
C3       0.74311    0.71684    0.95643   1.00
C3       0.72236    0.72726    1.04187   1.00
C2       0.75047    0.75302    0.89487   1.00
C2       0.74966    0.74727    1.10514   1.00
C3       0.75699    0.78685    0.91715   1.00
C3       0.77751    0.76925    1.08449   1.00
C3       0.74348    0.71805    0.91514   1.00
C3a      0.72193    0.72609    1.08328   1.00
H1       0.76159    0.81271    0.97425   1.00
H1       0.80014    0.78741    1.02875   1.00
H1       0.76235    0.81426    0.90240   1.00
H1       0.79923    0.78564    1.10056   1.00
H1       0.73851    0.69147    0.89882   1.00
C5       0.69127    0.70225    1.10380   1.00
H1       0.70039    0.71086    1.02622   1.00
H1       0.73840    0.68899    0.97059   1.00
H2       0.69507    0.70360    1.13599   1.00
H2       0.66215    0.71484    1.09705   1.00
N1       0.69308    0.66149    1.09125   1.00
C6       0.72339    0.63703    1.09644   1.00
C6       0.66472    0.64144    1.07288   1.00
C6       0.71442    0.60096    1.08102   1.00
C6       0.67710    0.60376    1.06604   1.00
H3       0.75059    0.64491    1.11049   1.00
H3       0.63659    0.65335    1.06484   1.00
H3       0.73299    0.57546    1.08076   1.00
H3       0.66073    0.58087    1.05180   1.00
C4       0.75073    0.97917    0.74973   1.00
C4       0.74927    1.02083    0.75027   1.00
C3       0.78580    0.95846    0.75670   1.00
C3       0.77033    1.04321    0.77783   1.00
C3       0.71684    0.95643    0.74311   1.00
C3       0.72726    1.04187    0.72236   1.00
C2       0.75302    0.89487    0.75047   1.00
C2       0.74727    1.10514    0.74966   1.00
C3       0.78685    0.91715    0.75699   1.00
C3       0.76925    1.08449    0.77751   1.00
C3       0.71805    0.91514    0.74348   1.00
C3a      0.72609    1.08328    0.72193   1.00
H1       0.81271    0.97425    0.76159   1.00
H1       0.78741    1.02875    0.80014   1.00
H1       0.81426    0.90240    0.76235   1.00
H1       0.78564    1.10056    0.79923   1.00
H1       0.69147    0.89882    0.73851   1.00
C5       0.70225    1.10380    0.69127   1.00
H1       0.71086    1.02622    0.70039   1.00
H1       0.68899    0.97059    0.73840   1.00
H2       0.70360    1.13599    0.69507   1.00
H2       0.71484    1.09705    0.66215   1.00
N1       0.66149    1.09125    0.69308   1.00
C6       0.63703    1.09644    0.72339   1.00
C6       0.64144    1.07288    0.66472   1.00
C6       0.60096    1.08102    0.71442   1.00
C6       0.60376    1.06604    0.67710   1.00
H3       0.64491    1.11049    0.75059   1.00
H3       0.65335    1.06484    0.63659   1.00
H3       0.57546    1.08076    0.73299   1.00
H3       0.58087    1.05180    0.66073   1.00
C4       0.52083    0.74973    0.74927   1.00
C4       0.47917    0.75027    0.75073   1.00
C3       0.54154    0.75670    0.71420   1.00
C3       0.45679    0.77783    0.72967   1.00
C3       0.54357    0.74311    0.78316   1.00
C3       0.45813    0.72236    0.77274   1.00
C2       0.60513    0.75047    0.74698   1.00
C2       0.39486    0.74966    0.75273   1.00
C3       0.58285    0.75699    0.71315   1.00
C3       0.41551    0.77751    0.73075   1.00
C3       0.58486    0.74348    0.78195   1.00
C3a      0.41672    0.72193    0.77391   1.00
H1       0.52575    0.76159    0.68729   1.00
H1       0.47125    0.80014    0.71259   1.00
H1       0.59760    0.76235    0.68574   1.00
H1       0.39944    0.79923    0.71436   1.00
H1       0.60118    0.73851    0.80853   1.00
C5       0.39620    0.69127    0.79775   1.00
H1       0.47378    0.70039    0.78914   1.00
H1       0.52941    0.73840    0.81101   1.00
H2       0.36401    0.69507    0.79640   1.00
H2       0.40295    0.66215    0.78516   1.00
N1       0.40875    0.69308    0.83851   1.00
C6       0.40356    0.72339    0.86297   1.00
C6       0.42712    0.66472    0.85856   1.00
C6       0.41898    0.71442    0.89904   1.00
C6       0.43396    0.67710    0.89624   1.00
H3       0.38951    0.75059    0.85509   1.00
H3       0.43516    0.63659    0.84665   1.00
H3       0.41924    0.73299    0.92454   1.00
H3       0.44820    0.66073    0.91913   1.00
C4       0.97917    0.74973    0.75073   1.00
C4       1.02083    0.75027    0.74927   1.00
C3       0.95846    0.75670    0.78580   1.00
C3       1.04321    0.77783    0.77033   1.00
C3       0.95643    0.74311    0.71684   1.00
C3       1.04187    0.72236    0.72726   1.00
C2       0.89487    0.75047    0.75302   1.00
C2       1.10514    0.74966    0.74727   1.00
C3       0.91715    0.75699    0.78685   1.00
C3       1.08449    0.77751    0.76925   1.00
C3       0.91514    0.74348    0.71805   1.00
C3a      1.08328    0.72193    0.72609   1.00
H1       0.97425    0.76159    0.81271   1.00
H1       1.02875    0.80014    0.78741   1.00
H1       0.90240    0.76235    0.81426   1.00
H1       1.10056    0.79923    0.78564   1.00
H1       0.89882    0.73851    0.69147   1.00
C5       1.10380    0.69127    0.70225   1.00
H1       1.02622    0.70039    0.71086   1.00
H1       0.97059    0.73840    0.68899   1.00
H2       1.13599    0.69507    0.70360   1.00
H2       1.09705    0.66215    0.71484   1.00
N1       1.09125    0.69308    0.66149   1.00
C6       1.09644    0.72339    0.63703   1.00
C6       1.07288    0.66472    0.64144   1.00
C6       1.08102    0.71442    0.60096   1.00
C6       1.06604    0.67710    0.60376   1.00
H3       1.11049    0.75059    0.64491   1.00
H3       1.06484    0.63659    0.65335   1.00
H3       1.08076    0.73299    0.57546   1.00
H3       1.05180    0.66073    0.58087   1.00
C4       0.74927    0.52083    0.74973   1.00
C4       0.75073    0.47917    0.75027   1.00
C3       0.71420    0.54154    0.75670   1.00
C3       0.72967    0.45679    0.77783   1.00
C3       0.78316    0.54357    0.74311   1.00
C3       0.77274    0.45813    0.72236   1.00
C2       0.74698    0.60513    0.75047   1.00
C2       0.75273    0.39486    0.74966   1.00
C3       0.71315    0.58285    0.75699   1.00
C3       0.73075    0.41551    0.77751   1.00
C3       0.78195    0.58486    0.74348   1.00
C3a      0.77391    0.41672    0.72193   1.00
H1       0.68729    0.52575    0.76159   1.00
H1       0.71259    0.47125    0.80014   1.00
H1       0.68574    0.59760    0.76235   1.00
H1       0.71436    0.39944    0.79923   1.00
H1       0.80853    0.60118    0.73851   1.00
C5       0.79775    0.39620    0.69127   1.00
H1       0.78914    0.47378    0.70039   1.00
H1       0.81101    0.52941    0.73840   1.00
H2       0.79640    0.36401    0.69507   1.00
H2       0.78516    0.40295    0.66215   1.00
N1       0.83851    0.40875    0.69308   1.00
C6       0.86297    0.40356    0.72339   1.00
C6       0.85856    0.42712    0.66472   1.00
C6       0.89904    0.41898    0.71442   1.00
C6       0.89624    0.43396    0.67710   1.00
H3       0.85509    0.38951    0.75059   1.00
H3       0.84665    0.43516    0.63659   1.00
H3       0.92454    0.41924    0.73299   1.00
H3       0.91913    0.44820    0.66073   1.00
C4       0.74973    0.74927    0.52083   1.00
C4       0.75027    0.75073    0.47917   1.00
C3       0.75670    0.71420    0.54154   1.00
C3       0.77783    0.72967    0.45679   1.00
C3       0.74311    0.78316    0.54357   1.00
C3       0.72236    0.77274    0.45813   1.00
C2       0.75047    0.74698    0.60513   1.00
C2       0.74966    0.75273    0.39486   1.00
C3       0.75699    0.71315    0.58285   1.00
C3       0.77751    0.73075    0.41551   1.00
C3       0.74348    0.78195    0.58486   1.00
C3a      0.72193    0.77391    0.41672   1.00
H1       0.76159    0.68729    0.52575   1.00
H1       0.80014    0.71259    0.47125   1.00
H1       0.76235    0.68574    0.59760   1.00
H1       0.79923    0.71436    0.39944   1.00
H1       0.73851    0.80853    0.60118   1.00
C5       0.69127    0.79775    0.39620   1.00
H1       0.70039    0.78914    0.47378   1.00
H1       0.73840    0.81101    0.52941   1.00
H2       0.69507    0.79640    0.36401   1.00
H2       0.66215    0.78516    0.40295   1.00
N1       0.69308    0.83851    0.40875   1.00
C6       0.72339    0.86297    0.40356   1.00
C6       0.66472    0.85856    0.42712   1.00
C6       0.71442    0.89904    0.41898   1.00
C6       0.67710    0.89624    0.43396   1.00
H3       0.75059    0.85509    0.38951   1.00
H3       0.63659    0.84665    0.43516   1.00
H3       0.73299    0.92454    0.41924   1.00
H3       0.66073    0.91913    0.44820   1.00
C4       0.24973    0.25073    0.97917   1.00
C4       0.25027    0.24927    1.02083   1.00
C3       0.25670    0.28580    0.95846   1.00
C3       0.27783    0.27033    1.04321   1.00
C3       0.24311    0.21684    0.95643   1.00
C3       0.22236    0.22726    1.04187   1.00
C2       0.25047    0.25302    0.89487   1.00
C2       0.24966    0.24727    1.10514   1.00
C3       0.25699    0.28685    0.91715   1.00
C3       0.27751    0.26925    1.08449   1.00
C3       0.24348    0.21805    0.91514   1.00
C3a      0.22193    0.22609    1.08328   1.00
H1       0.26159    0.31271    0.97425   1.00
H1       0.30014    0.28741    1.02875   1.00
H1       0.26235    0.31426    0.90240   1.00
H1       0.29923    0.28564    1.10056   1.00
H1       0.23851    0.19147    0.89882   1.00
C5       0.19127    0.20225    1.10380   1.00
H1       0.20039    0.21086    1.02622   1.00
H1       0.23840    0.18899    0.97059   1.00
H2       0.19507    0.20360    1.13599   1.00
H2       0.16215    0.21484    1.09705   1.00
N1       0.19308    0.16149    1.09125   1.00
C6       0.22339    0.13703    1.09644   1.00
C6       0.16472    0.14144    1.07288   1.00
C6       0.21442    0.10096    1.08102   1.00
C6       0.17710    0.10376    1.06604   1.00
H3       0.25059    0.14491    1.11049   1.00
H3       0.13659    0.15335    1.06484   1.00
H3       0.23299    0.07546    1.08076   1.00
H3       0.16073    0.08087    1.05180   1.00
C4       0.25073    0.47917    0.74973   1.00
C4       0.24927    0.52083    0.75027   1.00
C3       0.28580    0.45846    0.75670   1.00
C3       0.27033    0.54321    0.77783   1.00
C3       0.21684    0.45643    0.74311   1.00
C3       0.22726    0.54187    0.72236   1.00
C2       0.25302    0.39487    0.75047   1.00
C2       0.24727    0.60514    0.74966   1.00
C3       0.28685    0.41715    0.75699   1.00
C3       0.26925    0.58449    0.77751   1.00
C3       0.21805    0.41514    0.74348   1.00
C3a      0.22609    0.58328    0.72193   1.00
H1       0.31271    0.47425    0.76159   1.00
H1       0.28741    0.52875    0.80014   1.00
H1       0.31426    0.40240    0.76235   1.00
H1       0.28564    0.60056    0.79923   1.00
H1       0.19147    0.39882    0.73851   1.00
C5       0.20225    0.60380    0.69127   1.00
H1       0.21086    0.52622    0.70039   1.00
H1       0.18899    0.47059    0.73840   1.00
H2       0.20360    0.63599    0.69507   1.00
H2       0.21484    0.59705    0.66215   1.00
N1       0.16149    0.59125    0.69308   1.00
C6       0.13703    0.59644    0.72339   1.00
C6       0.14144    0.57288    0.66472   1.00
C6       0.10096    0.58102    0.71442   1.00
C6       0.10376    0.56604    0.67710   1.00
H3       0.14491    0.61049    0.75059   1.00
H3       0.15335    0.56484    0.63659   1.00
H3       0.07546    0.58076    0.73299   1.00
H3       0.08087    0.55180    0.66073   1.00
C4       0.02083    0.24973    0.74927   1.00
C4       -0.02083   0.25027    0.75073   1.00
C3       0.04154    0.25670    0.71420   1.00
C3       -0.04321   0.27783    0.72967   1.00
C3       0.04357    0.24311    0.78316   1.00
C3       -0.04187   0.22236    0.77274   1.00
C2       0.10513    0.25047    0.74698   1.00
C2       -0.10514   0.24966    0.75273   1.00
C3       0.08285    0.25699    0.71315   1.00
C3       -0.08449   0.27751    0.73075   1.00
C3       0.08486    0.24348    0.78195   1.00
C3a      -0.08328   0.22193    0.77391   1.00
H1       0.02575    0.26159    0.68729   1.00
H1       -0.02875   0.30014    0.71259   1.00
H1       0.09760    0.26235    0.68574   1.00
H1       -0.10056   0.29923    0.71436   1.00
H1       0.10118    0.23851    0.80853   1.00
C5       -0.10380   0.19127    0.79775   1.00
H1       -0.02622   0.20039    0.78914   1.00
H1       0.02941    0.23840    0.81101   1.00
H2       -0.13599   0.19507    0.79640   1.00
H2       -0.09705   0.16215    0.78516   1.00
N1       -0.09125   0.19308    0.83851   1.00
C6       -0.09644   0.22339    0.86297   1.00
C6       -0.07288   0.16472    0.85856   1.00
C6       -0.08102   0.21442    0.89904   1.00
C6       -0.06604   0.17710    0.89624   1.00
H3       -0.11049   0.25059    0.85509   1.00
H3       -0.06484   0.13659    0.84665   1.00
H3       -0.08076   0.23299    0.92454   1.00
H3       -0.05180   0.16073    0.91913   1.00
C4       0.47917    0.24973    0.75073   1.00
C4       0.52083    0.25027    0.74927   1.00
C3       0.45846    0.25670    0.78580   1.00
C3       0.54321    0.27783    0.77033   1.00
C3       0.45643    0.24311    0.71684   1.00
C3       0.54187    0.22236    0.72726   1.00
C2       0.39487    0.25047    0.75302   1.00
C2       0.60514    0.24966    0.74727   1.00
C3       0.41715    0.25699    0.78685   1.00
C3       0.58449    0.27751    0.76925   1.00
C3       0.41514    0.24348    0.71805   1.00
C3a      0.58328    0.22193    0.72609   1.00
H1       0.47425    0.26159    0.81271   1.00
H1       0.52875    0.30014    0.78741   1.00
H1       0.40240    0.26235    0.81426   1.00
H1       0.60056    0.29923    0.78564   1.00
H1       0.39882    0.23851    0.69147   1.00
C5       0.60380    0.19127    0.70225   1.00
H1       0.52622    0.20039    0.71086   1.00
H1       0.47059    0.23840    0.68899   1.00
H2       0.63599    0.19507    0.70360   1.00
H2       0.59705    0.16215    0.71484   1.00
N1       0.59125    0.19308    0.66149   1.00
C6       0.59644    0.22339    0.63703   1.00
C6       0.57288    0.16472    0.64144   1.00
C6       0.58102    0.21442    0.60096   1.00
C6       0.56604    0.17710    0.60376   1.00
H3       0.61049    0.25059    0.64491   1.00
H3       0.56484    0.13659    0.65335   1.00
H3       0.58076    0.23299    0.57546   1.00
H3       0.55180    0.16073    0.58087   1.00
C4       0.24927    0.02083    0.74973   1.00
C4       0.25073    -0.02083   0.75027   1.00
C3       0.21420    0.04154    0.75670   1.00
C3       0.22967    -0.04321   0.77783   1.00
C3       0.28316    0.04357    0.74311   1.00
C3       0.27274    -0.04187   0.72236   1.00
C2       0.24698    0.10513    0.75047   1.00
C2       0.25273    -0.10514   0.74966   1.00
C3       0.21315    0.08285    0.75699   1.00
C3       0.23075    -0.08449   0.77751   1.00
C3       0.28195    0.08486    0.74348   1.00
C3a      0.27391    -0.08328   0.72193   1.00
H1       0.18729    0.02575    0.76159   1.00
H1       0.21259    -0.02875   0.80014   1.00
H1       0.18574    0.09760    0.76235   1.00
H1       0.21436    -0.10056   0.79923   1.00
H1       0.30853    0.10118    0.73851   1.00
C5       0.29775    -0.10380   0.69127   1.00
H1       0.28914    -0.02622   0.70039   1.00
H1       0.31101    0.02941    0.73840   1.00
H2       0.29640    -0.13599   0.69507   1.00
H2       0.28516    -0.09705   0.66215   1.00
N1       0.33851    -0.09125   0.69308   1.00
C6       0.36297    -0.09644   0.72339   1.00
C6       0.35856    -0.07288   0.66472   1.00
C6       0.39904    -0.08102   0.71442   1.00
C6       0.39624    -0.06604   0.67710   1.00
H3       0.35509    -0.11049   0.75059   1.00
H3       0.34665    -0.06484   0.63659   1.00
H3       0.42454    -0.08076   0.73299   1.00
H3       0.41913    -0.05180   0.66073   1.00
C4       0.24973    0.24927    0.52083   1.00
C4       0.25027    0.25073    0.47917   1.00
C3       0.25670    0.21420    0.54154   1.00
C3       0.27783    0.22967    0.45679   1.00
C3       0.24311    0.28316    0.54357   1.00
C3       0.22236    0.27274    0.45813   1.00
C2       0.25047    0.24698    0.60513   1.00
C2       0.24966    0.25273    0.39486   1.00
C3       0.25699    0.21315    0.58285   1.00
C3       0.27751    0.23075    0.41551   1.00
C3       0.24348    0.28195    0.58486   1.00
C3a      0.22193    0.27391    0.41672   1.00
H1       0.26159    0.18729    0.52575   1.00
H1       0.30014    0.21259    0.47125   1.00
H1       0.26235    0.18574    0.59760   1.00
H1       0.29923    0.21436    0.39944   1.00
H1       0.23851    0.30853    0.60118   1.00
C5       0.19127    0.29775    0.39620   1.00
H1       0.20039    0.28914    0.47378   1.00
H1       0.23840    0.31101    0.52941   1.00
H2       0.19507    0.29640    0.36401   1.00
H2       0.16215    0.28516    0.40295   1.00
N1       0.19308    0.33851    0.40875   1.00
C6       0.22339    0.36297    0.40356   1.00
C6       0.16472    0.35856    0.42712   1.00
C6       0.21442    0.39904    0.41898   1.00
C6       0.17710    0.39624    0.43396   1.00
H3       0.25059    0.35509    0.38951   1.00
H3       0.13659    0.34665    0.43516   1.00
H3       0.23299    0.42454    0.41924   1.00
H3       0.16073    0.41913    0.44820   1.00
C4       0.24973    0.75073    0.47917   1.00
C4       0.25027    0.74927    0.52083   1.00
C3       0.25670    0.78580    0.45846   1.00
C3       0.27783    0.77033    0.54321   1.00
C3       0.24311    0.71684    0.45643   1.00
C3       0.22236    0.72726    0.54187   1.00
C2       0.25047    0.75302    0.39487   1.00
C2       0.24966    0.74727    0.60514   1.00
C3       0.25699    0.78685    0.41715   1.00
C3       0.27751    0.76925    0.58449   1.00
C3       0.24348    0.71805    0.41514   1.00
C3a      0.22193    0.72609    0.58328   1.00
H1       0.26159    0.81271    0.47425   1.00
H1       0.30014    0.78741    0.52875   1.00
H1       0.26235    0.81426    0.40240   1.00
H1       0.29923    0.78564    0.60056   1.00
H1       0.23851    0.69147    0.39882   1.00
C5       0.19127    0.70225    0.60380   1.00
H1       0.20039    0.71086    0.52622   1.00
H1       0.23840    0.68899    0.47059   1.00
H2       0.19507    0.70360    0.63599   1.00
H2       0.16215    0.71484    0.59705   1.00
N1       0.19308    0.66149    0.59125   1.00
C6       0.22339    0.63703    0.59644   1.00
C6       0.16472    0.64144    0.57288   1.00
C6       0.21442    0.60096    0.58102   1.00
C6       0.17710    0.60376    0.56604   1.00
H3       0.25059    0.64491    0.61049   1.00
H3       0.13659    0.65335    0.56484   1.00
H3       0.23299    0.57546    0.58076   1.00
H3       0.16073    0.58087    0.55180   1.00
C4       0.25073    0.97917    0.24973   1.00
C4       0.24927    1.02083    0.25027   1.00
C3       0.28580    0.95846    0.25670   1.00
C3       0.27033    1.04321    0.27783   1.00
C3       0.21684    0.95643    0.24311   1.00
C3       0.22726    1.04187    0.22236   1.00
C2       0.25302    0.89487    0.25047   1.00
C2       0.24727    1.10514    0.24966   1.00
C3       0.28685    0.91715    0.25699   1.00
C3       0.26925    1.08449    0.27751   1.00
C3       0.21805    0.91514    0.24348   1.00
C3a      0.22609    1.08328    0.22193   1.00
H1       0.31271    0.97425    0.26159   1.00
H1       0.28741    1.02875    0.30014   1.00
H1       0.31426    0.90240    0.26235   1.00
H1       0.28564    1.10056    0.29923   1.00
H1       0.19147    0.89882    0.23851   1.00
C5       0.20225    1.10380    0.19127   1.00
H1       0.21086    1.02622    0.20039   1.00
H1       0.18899    0.97059    0.23840   1.00
H2       0.20360    1.13599    0.19507   1.00
H2       0.21484    1.09705    0.16215   1.00
N1       0.16149    1.09125    0.19308   1.00
C6       0.13703    1.09644    0.22339   1.00
C6       0.14144    1.07288    0.16472   1.00
C6       0.10096    1.08102    0.21442   1.00
C6       0.10376    1.06604    0.17710   1.00
H3       0.14491    1.11049    0.25059   1.00
H3       0.15335    1.06484    0.13659   1.00
H3       0.07546    1.08076    0.23299   1.00
H3       0.08087    1.05180    0.16073   1.00
C4       0.02083    0.74973    0.24927   1.00
C4       -0.02083   0.75027    0.25073   1.00
C3       0.04154    0.75670    0.21420   1.00
C3       -0.04321   0.77783    0.22967   1.00
C3       0.04357    0.74311    0.28316   1.00
C3       -0.04187   0.72236    0.27274   1.00
C2       0.10513    0.75047    0.24698   1.00
C2       -0.10514   0.74966    0.25273   1.00
C3       0.08285    0.75699    0.21315   1.00
C3       -0.08449   0.77751    0.23075   1.00
C3       0.08486    0.74348    0.28195   1.00
C3a      -0.08328   0.72193    0.27391   1.00
H1       0.02575    0.76159    0.18729   1.00
H1       -0.02875   0.80014    0.21259   1.00
H1       0.09760    0.76235    0.18574   1.00
H1       -0.10056   0.79923    0.21436   1.00
H1       0.10118    0.73851    0.30853   1.00
C5       -0.10380   0.69127    0.29775   1.00
H1       -0.02622   0.70039    0.28914   1.00
H1       0.02941    0.73840    0.31101   1.00
H2       -0.13599   0.69507    0.29640   1.00
H2       -0.09705   0.66215    0.28516   1.00
N1       -0.09125   0.69308    0.33851   1.00
C6       -0.09644   0.72339    0.36297   1.00
C6       -0.07288   0.66472    0.35856   1.00
C6       -0.08102   0.71442    0.39904   1.00
C6       -0.06604   0.67710    0.39624   1.00
H3       -0.11049   0.75059    0.35509   1.00
H3       -0.06484   0.63659    0.34665   1.00
H3       -0.08076   0.73299    0.42454   1.00
H3       -0.05180   0.66073    0.41913   1.00
C4       0.47917    0.74973    0.25073   1.00
C4       0.52083    0.75027    0.24927   1.00
C3       0.45846    0.75670    0.28580   1.00
C3       0.54321    0.77783    0.27033   1.00
C3       0.45643    0.74311    0.21684   1.00
C3       0.54187    0.72236    0.22726   1.00
C2       0.39487    0.75047    0.25302   1.00
C2       0.60514    0.74966    0.24727   1.00
C3       0.41715    0.75699    0.28685   1.00
C3       0.58449    0.77751    0.26925   1.00
C3       0.41514    0.74348    0.21805   1.00
C3a      0.58328    0.72193    0.22609   1.00
H1       0.47425    0.76159    0.31271   1.00
H1       0.52875    0.80014    0.28741   1.00
H1       0.40240    0.76235    0.31426   1.00
H1       0.60056    0.79923    0.28564   1.00
H1       0.39882    0.73851    0.19147   1.00
C5       0.60380    0.69127    0.20225   1.00
H1       0.52622    0.70039    0.21086   1.00
H1       0.47059    0.73840    0.18899   1.00
H2       0.63599    0.69507    0.20360   1.00
H2       0.59705    0.66215    0.21484   1.00
N1       0.59125    0.69308    0.16149   1.00
C6       0.59644    0.72339    0.13703   1.00
C6       0.57288    0.66472    0.14144   1.00
C6       0.58102    0.71442    0.10096   1.00
C6       0.56604    0.67710    0.10376   1.00
H3       0.61049    0.75059    0.14491   1.00
H3       0.56484    0.63659    0.15335   1.00
H3       0.58076    0.73299    0.07546   1.00
H3       0.55180    0.66073    0.08087   1.00
C4       0.24927    0.52083    0.24973   1.00
C4       0.25073    0.47917    0.25027   1.00
C3       0.21420    0.54154    0.25670   1.00
C3       0.22967    0.45679    0.27783   1.00
C3       0.28316    0.54357    0.24311   1.00
C3       0.27274    0.45813    0.22236   1.00
C2       0.24698    0.60513    0.25047   1.00
C2       0.25273    0.39486    0.24966   1.00
C3       0.21315    0.58285    0.25699   1.00
C3       0.23075    0.41551    0.27751   1.00
C3       0.28195    0.58486    0.24348   1.00
C3a      0.27391    0.41672    0.22193   1.00
H1       0.18729    0.52575    0.26159   1.00
H1       0.21259    0.47125    0.30014   1.00
H1       0.18574    0.59760    0.26235   1.00
H1       0.21436    0.39944    0.29923   1.00
H1       0.30853    0.60118    0.23851   1.00
C5       0.29775    0.39620    0.19127   1.00
H1       0.28914    0.47378    0.20039   1.00
H1       0.31101    0.52941    0.23840   1.00
H2       0.29640    0.36401    0.19507   1.00
H2       0.28516    0.40295    0.16215   1.00
N1       0.33851    0.40875    0.19308   1.00
C6       0.36297    0.40356    0.22339   1.00
C6       0.35856    0.42712    0.16472   1.00
C6       0.39904    0.41898    0.21442   1.00
C6       0.39624    0.43396    0.17710   1.00
H3       0.35509    0.38951    0.25059   1.00
H3       0.34665    0.43516    0.13659   1.00
H3       0.42454    0.41924    0.23299   1.00
H3       0.41913    0.44820    0.16073   1.00
C4       0.24973    0.74927    0.02083   1.00
C4       0.25027    0.75073    -0.02083   1.00
C3       0.25670    0.71420    0.04154   1.00
C3       0.27783    0.72967    -0.04321   1.00
C3       0.24311    0.78316    0.04357   1.00
C3       0.22236    0.77274    -0.04187   1.00
C2       0.25047    0.74698    0.10513   1.00
C2       0.24966    0.75273    -0.10514   1.00
C3       0.25699    0.71315    0.08285   1.00
C3       0.27751    0.73075    -0.08449   1.00
C3       0.24348    0.78195    0.08486   1.00
C3a      0.22193    0.77391    -0.08328   1.00
H1       0.26159    0.68729    0.02575   1.00
H1       0.30014    0.71259    -0.02875   1.00
H1       0.26235    0.68574    0.09760   1.00
H1       0.29923    0.71436    -0.10056   1.00
H1       0.23851    0.80853    0.10118   1.00
C5       0.19127    0.79775    -0.10380   1.00
H1       0.20039    0.78914    -0.02622   1.00
H1       0.23840    0.81101    0.02941   1.00
H2       0.19507    0.79640    -0.13599   1.00
H2       0.16215    0.78516    -0.09705   1.00
N1       0.19308    0.83851    -0.09125   1.00
C6       0.22339    0.86297    -0.09644   1.00
C6       0.16472    0.85856    -0.07288   1.00
C6       0.21442    0.89904    -0.08102   1.00
C6       0.17710    0.89624    -0.06604   1.00
H3       0.25059    0.85509    -0.11049   1.00
H3       0.13659    0.84665    -0.06484   1.00
H3       0.23299    0.92454    -0.08076   1.00
H3       0.16073    0.91913    -0.05180   1.00
C4       0.74973    0.25073    0.47917   1.00
C4       0.75027    0.24927    0.52083   1.00
C3       0.75670    0.28580    0.45846   1.00
C3       0.77783    0.27033    0.54321   1.00
C3       0.74311    0.21684    0.45643   1.00
C3       0.72236    0.22726    0.54187   1.00
C2       0.75047    0.25302    0.39487   1.00
C2       0.74966    0.24727    0.60514   1.00
C3       0.75699    0.28685    0.41715   1.00
C3       0.77751    0.26925    0.58449   1.00
C3       0.74348    0.21805    0.41514   1.00
C3a      0.72193    0.22609    0.58328   1.00
H1       0.76159    0.31271    0.47425   1.00
H1       0.80014    0.28741    0.52875   1.00
H1       0.76235    0.31426    0.40240   1.00
H1       0.79923    0.28564    0.60056   1.00
H1       0.73851    0.19147    0.39882   1.00
C5       0.69127    0.20225    0.60380   1.00
H1       0.70039    0.21086    0.52622   1.00
H1       0.73840    0.18899    0.47059   1.00
H2       0.69507    0.20360    0.63599   1.00
H2       0.66215    0.21484    0.59705   1.00
N1       0.69308    0.16149    0.59125   1.00
C6       0.72339    0.13703    0.59644   1.00
C6       0.66472    0.14144    0.57288   1.00
C6       0.71442    0.10096    0.58102   1.00
C6       0.67710    0.10376    0.56604   1.00
H3       0.75059    0.14491    0.61049   1.00
H3       0.63659    0.15335    0.56484   1.00
H3       0.73299    0.07546    0.58076   1.00
H3       0.66073    0.08087    0.55180   1.00
C4       0.75073    0.47917    0.24973   1.00
C4       0.74927    0.52083    0.25027   1.00
C3       0.78580    0.45846    0.25670   1.00
C3       0.77033    0.54321    0.27783   1.00
C3       0.71684    0.45643    0.24311   1.00
C3       0.72726    0.54187    0.22236   1.00
C2       0.75302    0.39487    0.25047   1.00
C2       0.74727    0.60514    0.24966   1.00
C3       0.78685    0.41715    0.25699   1.00
C3       0.76925    0.58449    0.27751   1.00
C3       0.71805    0.41514    0.24348   1.00
C3a      0.72609    0.58328    0.22193   1.00
H1       0.81271    0.47425    0.26159   1.00
H1       0.78741    0.52875    0.30014   1.00
H1       0.81426    0.40240    0.26235   1.00
H1       0.78564    0.60056    0.29923   1.00
H1       0.69147    0.39882    0.23851   1.00
C5       0.70225    0.60380    0.19127   1.00
H1       0.71086    0.52622    0.20039   1.00
H1       0.68899    0.47059    0.23840   1.00
H2       0.70360    0.63599    0.19507   1.00
H2       0.71484    0.59705    0.16215   1.00
N1       0.66149    0.59125    0.19308   1.00
C6       0.63703    0.59644    0.22339   1.00
C6       0.64144    0.57288    0.16472   1.00
C6       0.60096    0.58102    0.21442   1.00
C6       0.60376    0.56604    0.17710   1.00
H3       0.64491    0.61049    0.25059   1.00
H3       0.65335    0.56484    0.13659   1.00
H3       0.57546    0.58076    0.23299   1.00
H3       0.58087    0.55180    0.16073   1.00
C4       0.52083    0.24973    0.24927   1.00
C4       0.47917    0.25027    0.25073   1.00
C3       0.54154    0.25670    0.21420   1.00
C3       0.45679    0.27783    0.22967   1.00
C3       0.54357    0.24311    0.28316   1.00
C3       0.45813    0.22236    0.27274   1.00
C2       0.60513    0.25047    0.24698   1.00
C2       0.39486    0.24966    0.25273   1.00
C3       0.58285    0.25699    0.21315   1.00
C3       0.41551    0.27751    0.23075   1.00
C3       0.58486    0.24348    0.28195   1.00
C3a      0.41672    0.22193    0.27391   1.00
H1       0.52575    0.26159    0.18729   1.00
H1       0.47125    0.30014    0.21259   1.00
H1       0.59760    0.26235    0.18574   1.00
H1       0.39944    0.29923    0.21436   1.00
H1       0.60118    0.23851    0.30853   1.00
C5       0.39620    0.19127    0.29775   1.00
H1       0.47378    0.20039    0.28914   1.00
H1       0.52941    0.23840    0.31101   1.00
H2       0.36401    0.19507    0.29640   1.00
H2       0.40295    0.16215    0.28516   1.00
N1       0.40875    0.19308    0.33851   1.00
C6       0.40356    0.22339    0.36297   1.00
C6       0.42712    0.16472    0.35856   1.00
C6       0.41898    0.21442    0.39904   1.00
C6       0.43396    0.17710    0.39624   1.00
H3       0.38951    0.25059    0.35509   1.00
H3       0.43516    0.13659    0.34665   1.00
H3       0.41924    0.23299    0.42454   1.00
H3       0.44820    0.16073    0.41913   1.00
C4       0.97917    0.24973    0.25073   1.00
C4       1.02083    0.25027    0.24927   1.00
C3       0.95846    0.25670    0.28580   1.00
C3       1.04321    0.27783    0.27033   1.00
C3       0.95643    0.24311    0.21684   1.00
C3       1.04187    0.22236    0.22726   1.00
C2       0.89487    0.25047    0.25302   1.00
C2       1.10514    0.24966    0.24727   1.00
C3       0.91715    0.25699    0.28685   1.00
C3       1.08449    0.27751    0.26925   1.00
C3       0.91514    0.24348    0.21805   1.00
C3a      1.08328    0.22193    0.22609   1.00
H1       0.97425    0.26159    0.31271   1.00
H1       1.02875    0.30014    0.28741   1.00
H1       0.90240    0.26235    0.31426   1.00
H1       1.10056    0.29923    0.28564   1.00
H1       0.89882    0.23851    0.19147   1.00
C5       1.10380    0.19127    0.20225   1.00
H1       1.02622    0.20039    0.21086   1.00
H1       0.97059    0.23840    0.18899   1.00
H2       1.13599    0.19507    0.20360   1.00
H2       1.09705    0.16215    0.21484   1.00
N1       1.09125    0.19308    0.16149   1.00
C6       1.09644    0.22339    0.13703   1.00
C6       1.07288    0.16472    0.14144   1.00
C6       1.08102    0.21442    0.10096   1.00
C6       1.06604    0.17710    0.10376   1.00
H3       1.11049    0.25059    0.14491   1.00
H3       1.06484    0.13659    0.15335   1.00
H3       1.08076    0.23299    0.07546   1.00
H3       1.05180    0.16073    0.08087   1.00
C4       0.74927    0.02083    0.24973   1.00
C4       0.75073    -0.02083   0.25027   1.00
C3       0.71420    0.04154    0.25670   1.00
C3       0.72967    -0.04321   0.27783   1.00
C3       0.78316    0.04357    0.24311   1.00
C3       0.77274    -0.04187   0.22236   1.00
C2       0.74698    0.10513    0.25047   1.00
C2       0.75273    -0.10514   0.24966   1.00
C3       0.71315    0.08285    0.25699   1.00
C3       0.73075    -0.08449   0.27751   1.00
C3       0.78195    0.08486    0.24348   1.00
C3a      0.77391    -0.08328   0.22193   1.00
H1       0.68729    0.02575    0.26159   1.00
H1       0.71259    -0.02875   0.30014   1.00
H1       0.68574    0.09760    0.26235   1.00
H1       0.71436    -0.10056   0.29923   1.00
H1       0.80853    0.10118    0.23851   1.00
C5       0.79775    -0.10380   0.19127   1.00
H1       0.78914    -0.02622   0.20039   1.00
H1       0.81101    0.02941    0.23840   1.00
H2       0.79640    -0.13599   0.19507   1.00
H2       0.78516    -0.09705   0.16215   1.00
N1       0.83851    -0.09125   0.19308   1.00
C6       0.86297    -0.09644   0.22339   1.00
C6       0.85856    -0.07288   0.16472   1.00
C6       0.89904    -0.08102   0.21442   1.00
C6       0.89624    -0.06604   0.17710   1.00
H3       0.85509    -0.11049   0.25059   1.00
H3       0.84665    -0.06484   0.13659   1.00
H3       0.92454    -0.08076   0.23299   1.00
H3       0.91913    -0.05180   0.16073   1.00
C4       0.74973    0.24927    0.02083   1.00
C4       0.75027    0.25073    -0.02083   1.00
C3       0.75670    0.21420    0.04154   1.00
C3       0.77783    0.22967    -0.04321   1.00
C3       0.74311    0.28316    0.04357   1.00
C3       0.72236    0.27274    -0.04187   1.00
C2       0.75047    0.24698    0.10513   1.00
C2       0.74966    0.25273    -0.10514   1.00
C3       0.75699    0.21315    0.08285   1.00
C3       0.77751    0.23075    -0.08449   1.00
C3       0.74348    0.28195    0.08486   1.00
C3a      0.72193    0.27391    -0.08328   1.00
H1       0.76159    0.18729    0.02575   1.00
H1       0.80014    0.21259    -0.02875   1.00
H1       0.76235    0.18574    0.09760   1.00
H1       0.79923    0.21436    -0.10056   1.00
H1       0.73851    0.30853    0.10118   1.00
C5       0.69127    0.29775    -0.10380   1.00
H1       0.70039    0.28914    -0.02622   1.00
H1       0.73840    0.31101    0.02941   1.00
H2       0.69507    0.29640    -0.13599   1.00
H2       0.66215    0.28516    -0.09705   1.00
N1       0.69308    0.33851    -0.09125   1.00
C6       0.72339    0.36297    -0.09644   1.00
C6       0.66472    0.35856    -0.07288   1.00
C6       0.71442    0.39904    -0.08102   1.00
C6       0.67710    0.39624    -0.06604   1.00
H3       0.75059    0.35509    -0.11049   1.00
H3       0.63659    0.34665    -0.06484   1.00
H3       0.73299    0.42454    -0.08076   1.00
H3       0.66073    0.41913    -0.05180   1.00
C4       0.99973    1.00073    1.22917   1.00
C4       1.00027    0.99927    1.27083   1.00
C3       1.00670    1.03580    1.20846   1.00
C3       1.02783    1.02033    1.29321   1.00
C3       0.99311    0.96684    1.20643   1.00
C3       0.97236    0.97726    1.29187   1.00
C2       1.00047    1.00302    1.14487   1.00
C2       0.99966    0.99727    1.35514   1.00
C3       1.00699    1.03685    1.16715   1.00
C3       1.02751    1.01925    1.33449   1.00
C3       0.99348    0.96805    1.16514   1.00
C3a      0.97193    0.97609    1.33328   1.00
H1       1.01159    1.06271    1.22425   1.00
H1       1.05014    1.03741    1.27875   1.00
H1       1.01235    1.06426    1.15240   1.00
H1       1.04923    1.03564    1.35056   1.00
H1       0.98851    0.94147    1.14882   1.00
C5       0.94127    0.95225    1.35380   1.00
H1       0.95039    0.96086    1.27622   1.00
H1       0.98840    0.93899    1.22059   1.00
H2       0.94507    0.95360    1.38599   1.00
H2       0.91215    0.96484    1.34705   1.00
N1       0.94308    0.91149    1.34125   1.00
C6       0.97339    0.88703    1.34644   1.00
C6       0.91472    0.89144    1.32288   1.00
C6       0.96442    0.85096    1.33102   1.00
C6       0.92710    0.85376    1.31604   1.00
H3       1.00059    0.89491    1.36049   1.00
H3       0.88659    0.90335    1.31484   1.00
H3       0.98299    0.82546    1.33076   1.00
H3       0.91073    0.83087    1.30180   1.00
C4       1.00073    1.22917    0.99973   1.00
C4       0.99927    1.27083    1.00027   1.00
C3       1.03580    1.20846    1.00670   1.00
C3       1.02033    1.29321    1.02783   1.00
C3       0.96684    1.20643    0.99311   1.00
C3       0.97726    1.29187    0.97236   1.00
C2       1.00302    1.14487    1.00047   1.00
C2       0.99727    1.35514    0.99966   1.00
C3       1.03685    1.16715    1.00699   1.00
C3       1.01925    1.33449    1.02751   1.00
C3       0.96805    1.16514    0.99348   1.00
C3a      0.97609    1.33328    0.97193   1.00
H1       1.06271    1.22425    1.01159   1.00
H1       1.03741    1.27875    1.05014   1.00
H1       1.06426    1.15240    1.01235   1.00
H1       1.03564    1.35056    1.04923   1.00
H1       0.94147    1.14882    0.98851   1.00
C5       0.95225    1.35380    0.94127   1.00
H1       0.96086    1.27622    0.95039   1.00
H1       0.93899    1.22059    0.98840   1.00
H2       0.95360    1.38599    0.94507   1.00
H2       0.96484    1.34705    0.91215   1.00
N1       0.91149    1.34125    0.94308   1.00
C6       0.88703    1.34644    0.97339   1.00
C6       0.89144    1.32288    0.91472   1.00
C6       0.85096    1.33102    0.96442   1.00
C6       0.85376    1.31604    0.92710   1.00
H3       0.89491    1.36049    1.00059   1.00
H3       0.90335    1.31484    0.88659   1.00
H3       0.82546    1.33076    0.98299   1.00
H3       0.83087    1.30180    0.91073   1.00
C4       0.77083    0.99973    0.99927   1.00
C4       0.72917    1.00027    1.00073   1.00
C3       0.79154    1.00670    0.96420   1.00
C3       0.70679    1.02783    0.97967   1.00
C3       0.79357    0.99311    1.03316   1.00
C3       0.70813    0.97236    1.02274   1.00
C2       0.85513    1.00047    0.99698   1.00
C2       0.64486    0.99966    1.00273   1.00
C3       0.83285    1.00699    0.96315   1.00
C3       0.66551    1.02751    0.98075   1.00
C3       0.83486    0.99348    1.03195   1.00
C3a      0.66672    0.97193    1.02391   1.00
H1       0.77575    1.01159    0.93729   1.00
H1       0.72125    1.05014    0.96259   1.00
H1       0.84760    1.01235    0.93574   1.00
H1       0.64944    1.04923    0.96436   1.00
H1       0.85118    0.98851    1.05853   1.00
C5       0.64620    0.94127    1.04775   1.00
H1       0.72378    0.95039    1.03914   1.00
H1       0.77941    0.98840    1.06101   1.00
H2       0.61401    0.94507    1.04640   1.00
H2       0.65295    0.91215    1.03516   1.00
N1       0.65875    0.94308    1.08851   1.00
C6       0.65356    0.97339    1.11297   1.00
C6       0.67712    0.91472    1.10856   1.00
C6       0.66898    0.96442    1.14904   1.00
C6       0.68396    0.92710    1.14624   1.00
H3       0.63951    1.00059    1.10509   1.00
H3       0.68516    0.88659    1.09665   1.00
H3       0.66924    0.98299    1.17454   1.00
H3       0.69820    0.91073    1.16913   1.00
C4       1.22917    0.99973    1.00073   1.00
C4       1.27083    1.00027    0.99927   1.00
C3       1.20846    1.00670    1.03580   1.00
C3       1.29321    1.02783    1.02033   1.00
C3       1.20643    0.99311    0.96684   1.00
C3       1.29187    0.97236    0.97726   1.00
C2       1.14487    1.00047    1.00302   1.00
C2       1.35514    0.99966    0.99727   1.00
C3       1.16715    1.00699    1.03685   1.00
C3       1.33449    1.02751    1.01925   1.00
C3       1.16514    0.99348    0.96805   1.00
C3a      1.33328    0.97193    0.97609   1.00
H1       1.22425    1.01159    1.06271   1.00
H1       1.27875    1.05014    1.03741   1.00
H1       1.15240    1.01235    1.06426   1.00
H1       1.35056    1.04923    1.03564   1.00
H1       1.14882    0.98851    0.94147   1.00
C5       1.35380    0.94127    0.95225   1.00
H1       1.27622    0.95039    0.96086   1.00
H1       1.22059    0.98840    0.93899   1.00
H2       1.38599    0.94507    0.95360   1.00
H2       1.34705    0.91215    0.96484   1.00
N1       1.34125    0.94308    0.91149   1.00
C6       1.34644    0.97339    0.88703   1.00
C6       1.32288    0.91472    0.89144   1.00
C6       1.33102    0.96442    0.85096   1.00
C6       1.31604    0.92710    0.85376   1.00
H3       1.36049    1.00059    0.89491   1.00
H3       1.31484    0.88659    0.90335   1.00
H3       1.33076    0.98299    0.82546   1.00
H3       1.30180    0.91073    0.83087   1.00
C4       0.99927    0.77083    0.99973   1.00
C4       1.00073    0.72917    1.00027   1.00
C3       0.96420    0.79154    1.00670   1.00
C3       0.97967    0.70679    1.02783   1.00
C3       1.03316    0.79357    0.99311   1.00
C3       1.02274    0.70813    0.97236   1.00
C2       0.99698    0.85513    1.00047   1.00
C2       1.00273    0.64486    0.99966   1.00
C3       0.96315    0.83285    1.00699   1.00
C3       0.98075    0.66551    1.02751   1.00
C3       1.03195    0.83486    0.99348   1.00
C3a      1.02391    0.66672    0.97193   1.00
H1       0.93729    0.77575    1.01159   1.00
H1       0.96259    0.72125    1.05014   1.00
H1       0.93574    0.84760    1.01235   1.00
H1       0.96436    0.64944    1.04923   1.00
H1       1.05853    0.85118    0.98851   1.00
C5       1.04775    0.64620    0.94127   1.00
H1       1.03914    0.72378    0.95039   1.00
H1       1.06101    0.77941    0.98840   1.00
H2       1.04640    0.61401    0.94507   1.00
H2       1.03516    0.65295    0.91215   1.00
N1       1.08851    0.65875    0.94308   1.00
C6       1.11297    0.65356    0.97339   1.00
C6       1.10856    0.67712    0.91472   1.00
C6       1.14904    0.66898    0.96442   1.00
C6       1.14624    0.68396    0.92710   1.00
H3       1.10509    0.63951    1.00059   1.00
H3       1.09665    0.68516    0.88659   1.00
H3       1.17454    0.66924    0.98299   1.00
H3       1.16913    0.69820    0.91073   1.00
C4       0.99973    0.99927    0.77083   1.00
C4       1.00027    1.00073    0.72917   1.00
C3       1.00670    0.96420    0.79154   1.00
C3       1.02783    0.97967    0.70679   1.00
C3       0.99311    1.03316    0.79357   1.00
C3       0.97236    1.02274    0.70813   1.00
C2       1.00047    0.99698    0.85513   1.00
C2       0.99966    1.00273    0.64486   1.00
C3       1.00699    0.96315    0.83285   1.00
C3       1.02751    0.98075    0.66551   1.00
C3       0.99348    1.03195    0.83486   1.00
C3a      0.97193    1.02391    0.66672   1.00
H1       1.01159    0.93729    0.77575   1.00
H1       1.05014    0.96259    0.72125   1.00
H1       1.01235    0.93574    0.84760   1.00
H1       1.04923    0.96436    0.64944   1.00
H1       0.98851    1.05853    0.85118   1.00
C5       0.94127    1.04775    0.64620   1.00
H1       0.95039    1.03914    0.72378   1.00
H1       0.98840    1.06101    0.77941   1.00
H2       0.94507    1.04640    0.61401   1.00
H2       0.91215    1.03516    0.65295   1.00
N1       0.94308    1.08851    0.65875   1.00
C6       0.97339    1.11297    0.65356   1.00
C6       0.91472    1.10856    0.67712   1.00
C6       0.96442    1.14904    0.66898   1.00
C6       0.92710    1.14624    0.68396   1.00
H3       1.00059    1.10509    0.63951   1.00
H3       0.88659    1.09665    0.68516   1.00
H3       0.98299    1.17454    0.66924   1.00
H3       0.91073    1.16913    0.69820   1.00
C4       0.49973    0.50073    1.22917   1.00
C4       0.50027    0.49927    1.27083   1.00
C3       0.50670    0.53580    1.20846   1.00
C3       0.52783    0.52033    1.29321   1.00
C3       0.49311    0.46684    1.20643   1.00
C3       0.47236    0.47726    1.29187   1.00
C2       0.50047    0.50302    1.14487   1.00
C2       0.49966    0.49727    1.35514   1.00
C3       0.50699    0.53685    1.16715   1.00
C3       0.52751    0.51925    1.33449   1.00
C3       0.49348    0.46805    1.16514   1.00
C3a      0.47193    0.47609    1.33328   1.00
H1       0.51159    0.56271    1.22425   1.00
H1       0.55014    0.53741    1.27875   1.00
H1       0.51235    0.56426    1.15240   1.00
H1       0.54923    0.53564    1.35056   1.00
H1       0.48851    0.44147    1.14882   1.00
C5       0.44127    0.45225    1.35380   1.00
H1       0.45039    0.46086    1.27622   1.00
H1       0.48840    0.43899    1.22059   1.00
H2       0.44507    0.45360    1.38599   1.00
H2       0.41215    0.46484    1.34705   1.00
N1       0.44308    0.41149    1.34125   1.00
C6       0.47339    0.38703    1.34644   1.00
C6       0.41472    0.39144    1.32288   1.00
C6       0.46442    0.35096    1.33102   1.00
C6       0.42710    0.35376    1.31604   1.00
H3       0.50059    0.39491    1.36049   1.00
H3       0.38659    0.40335    1.31484   1.00
H3       0.48299    0.32546    1.33076   1.00
H3       0.41073    0.33087    1.30180   1.00
C4       0.50073    0.72917    0.99973   1.00
C4       0.49927    0.77083    1.00027   1.00
C3       0.53580    0.70846    1.00670   1.00
C3       0.52033    0.79321    1.02783   1.00
C3       0.46684    0.70643    0.99311   1.00
C3       0.47726    0.79187    0.97236   1.00
C2       0.50302    0.64487    1.00047   1.00
C2       0.49727    0.85514    0.99966   1.00
C3       0.53685    0.66715    1.00699   1.00
C3       0.51925    0.83449    1.02751   1.00
C3       0.46805    0.66514    0.99348   1.00
C3a      0.47609    0.83328    0.97193   1.00
H1       0.56271    0.72425    1.01159   1.00
H1       0.53741    0.77875    1.05014   1.00
H1       0.56426    0.65240    1.01235   1.00
H1       0.53564    0.85056    1.04923   1.00
H1       0.44147    0.64882    0.98851   1.00
C5       0.45225    0.85380    0.94127   1.00
H1       0.46086    0.77622    0.95039   1.00
H1       0.43899    0.72059    0.98840   1.00
H2       0.45360    0.88599    0.94507   1.00
H2       0.46484    0.84705    0.91215   1.00
N1       0.41149    0.84125    0.94308   1.00
C6       0.38703    0.84644    0.97339   1.00
C6       0.39144    0.82288    0.91472   1.00
C6       0.35096    0.83102    0.96442   1.00
C6       0.35376    0.81604    0.92710   1.00
H3       0.39491    0.86049    1.00059   1.00
H3       0.40335    0.81484    0.88659   1.00
H3       0.32546    0.83076    0.98299   1.00
H3       0.33087    0.80180    0.91073   1.00
C4       0.27083    0.49973    0.99927   1.00
C4       0.22917    0.50027    1.00073   1.00
C3       0.29154    0.50670    0.96420   1.00
C3       0.20679    0.52783    0.97967   1.00
C3       0.29357    0.49311    1.03316   1.00
C3       0.20813    0.47236    1.02274   1.00
C2       0.35513    0.50047    0.99698   1.00
C2       0.14486    0.49966    1.00273   1.00
C3       0.33285    0.50699    0.96315   1.00
C3       0.16551    0.52751    0.98075   1.00
C3       0.33486    0.49348    1.03195   1.00
C3a      0.16672    0.47193    1.02391   1.00
H1       0.27575    0.51159    0.93729   1.00
H1       0.22125    0.55014    0.96259   1.00
H1       0.34760    0.51235    0.93574   1.00
H1       0.14944    0.54923    0.96436   1.00
H1       0.35118    0.48851    1.05853   1.00
C5       0.14620    0.44127    1.04775   1.00
H1       0.22378    0.45039    1.03914   1.00
H1       0.27941    0.48840    1.06101   1.00
H2       0.11401    0.44507    1.04640   1.00
H2       0.15295    0.41215    1.03516   1.00
N1       0.15875    0.44308    1.08851   1.00
C6       0.15356    0.47339    1.11297   1.00
C6       0.17712    0.41472    1.10856   1.00
C6       0.16898    0.46442    1.14904   1.00
C6       0.18396    0.42710    1.14624   1.00
H3       0.13951    0.50059    1.10509   1.00
H3       0.18516    0.38659    1.09665   1.00
H3       0.16924    0.48299    1.17454   1.00
H3       0.19820    0.41073    1.16913   1.00
C4       0.72917    0.49973    1.00073   1.00
C4       0.77083    0.50027    0.99927   1.00
C3       0.70846    0.50670    1.03580   1.00
C3       0.79321    0.52783    1.02033   1.00
C3       0.70643    0.49311    0.96684   1.00
C3       0.79187    0.47236    0.97726   1.00
C2       0.64487    0.50047    1.00302   1.00
C2       0.85514    0.49966    0.99727   1.00
C3       0.66715    0.50699    1.03685   1.00
C3       0.83449    0.52751    1.01925   1.00
C3       0.66514    0.49348    0.96805   1.00
C3a      0.83328    0.47193    0.97609   1.00
H1       0.72425    0.51159    1.06271   1.00
H1       0.77875    0.55014    1.03741   1.00
H1       0.65240    0.51235    1.06426   1.00
H1       0.85056    0.54923    1.03564   1.00
H1       0.64882    0.48851    0.94147   1.00
C5       0.85380    0.44127    0.95225   1.00
H1       0.77622    0.45039    0.96086   1.00
H1       0.72059    0.48840    0.93899   1.00
H2       0.88599    0.44507    0.95360   1.00
H2       0.84705    0.41215    0.96484   1.00
N1       0.84125    0.44308    0.91149   1.00
C6       0.84644    0.47339    0.88703   1.00
C6       0.82288    0.41472    0.89144   1.00
C6       0.83102    0.46442    0.85096   1.00
C6       0.81604    0.42710    0.85376   1.00
H3       0.86049    0.50059    0.89491   1.00
H3       0.81484    0.38659    0.90335   1.00
H3       0.83076    0.48299    0.82546   1.00
H3       0.80180    0.41073    0.83087   1.00
C4       0.49927    0.27083    0.99973   1.00
C4       0.50073    0.22917    1.00027   1.00
C3       0.46420    0.29154    1.00670   1.00
C3       0.47967    0.20679    1.02783   1.00
C3       0.53316    0.29357    0.99311   1.00
C3       0.52274    0.20813    0.97236   1.00
C2       0.49698    0.35513    1.00047   1.00
C2       0.50273    0.14486    0.99966   1.00
C3       0.46315    0.33285    1.00699   1.00
C3       0.48075    0.16551    1.02751   1.00
C3       0.53195    0.33486    0.99348   1.00
C3a      0.52391    0.16672    0.97193   1.00
H1       0.43729    0.27575    1.01159   1.00
H1       0.46259    0.22125    1.05014   1.00
H1       0.43574    0.34760    1.01235   1.00
H1       0.46436    0.14944    1.04923   1.00
H1       0.55853    0.35118    0.98851   1.00
C5       0.54775    0.14620    0.94127   1.00
H1       0.53914    0.22378    0.95039   1.00
H1       0.56101    0.27941    0.98840   1.00
H2       0.54640    0.11401    0.94507   1.00
H2       0.53516    0.15295    0.91215   1.00
N1       0.58851    0.15875    0.94308   1.00
C6       0.61297    0.15356    0.97339   1.00
C6       0.60856    0.17712    0.91472   1.00
C6       0.64904    0.16898    0.96442   1.00
C6       0.64624    0.18396    0.92710   1.00
H3       0.60509    0.13951    1.00059   1.00
H3       0.59665    0.18516    0.88659   1.00
H3       0.67454    0.16924    0.98299   1.00
H3       0.66913    0.19820    0.91073   1.00
C4       0.49973    0.49927    0.77083   1.00
C4       0.50027    0.50073    0.72917   1.00
C3       0.50670    0.46420    0.79154   1.00
C3       0.52783    0.47967    0.70679   1.00
C3       0.49311    0.53316    0.79357   1.00
C3       0.47236    0.52274    0.70813   1.00
C2       0.50047    0.49698    0.85513   1.00
C2       0.49966    0.50273    0.64486   1.00
C3       0.50699    0.46315    0.83285   1.00
C3       0.52751    0.48075    0.66551   1.00
C3       0.49348    0.53195    0.83486   1.00
C3a      0.47193    0.52391    0.66672   1.00
H1       0.51159    0.43729    0.77575   1.00
H1       0.55014    0.46259    0.72125   1.00
H1       0.51235    0.43574    0.84760   1.00
H1       0.54923    0.46436    0.64944   1.00
H1       0.48851    0.55853    0.85118   1.00
C5       0.44127    0.54775    0.64620   1.00
H1       0.45039    0.53914    0.72378   1.00
H1       0.48840    0.56101    0.77941   1.00
H2       0.44507    0.54640    0.61401   1.00
H2       0.41215    0.53516    0.65295   1.00
N1       0.44308    0.58851    0.65875   1.00
C6       0.47339    0.61297    0.65356   1.00
C6       0.41472    0.60856    0.67712   1.00
C6       0.46442    0.64904    0.66898   1.00
C6       0.42710    0.64624    0.68396   1.00
H3       0.50059    0.60509    0.63951   1.00
H3       0.38659    0.59665    0.68516   1.00
H3       0.48299    0.67454    0.66924   1.00
H3       0.41073    0.66913    0.69820   1.00
C4       0.49973    1.00073    0.72917   1.00
C4       0.50027    0.99927    0.77083   1.00
C3       0.50670    1.03580    0.70846   1.00
C3       0.52783    1.02033    0.79321   1.00
C3       0.49311    0.96684    0.70643   1.00
C3       0.47236    0.97726    0.79187   1.00
C2       0.50047    1.00302    0.64487   1.00
C2       0.49966    0.99727    0.85514   1.00
C3       0.50699    1.03685    0.66715   1.00
C3       0.52751    1.01925    0.83449   1.00
C3       0.49348    0.96805    0.66514   1.00
C3a      0.47193    0.97609    0.83328   1.00
H1       0.51159    1.06271    0.72425   1.00
H1       0.55014    1.03741    0.77875   1.00
H1       0.51235    1.06426    0.65240   1.00
H1       0.54923    1.03564    0.85056   1.00
H1       0.48851    0.94147    0.64882   1.00
C5       0.44127    0.95225    0.85380   1.00
H1       0.45039    0.96086    0.77622   1.00
H1       0.48840    0.93899    0.72059   1.00
H2       0.44507    0.95360    0.88599   1.00
H2       0.41215    0.96484    0.84705   1.00
N1       0.44308    0.91149    0.84125   1.00
C6       0.47339    0.88703    0.84644   1.00
C6       0.41472    0.89144    0.82288   1.00
C6       0.46442    0.85096    0.83102   1.00
C6       0.42710    0.85376    0.81604   1.00
H3       0.50059    0.89491    0.86049   1.00
H3       0.38659    0.90335    0.81484   1.00
H3       0.48299    0.82546    0.83076   1.00
H3       0.41073    0.83087    0.80180   1.00
C4       0.50073    1.22917    0.49973   1.00
C4       0.49927    1.27083    0.50027   1.00
C3       0.53580    1.20846    0.50670   1.00
C3       0.52033    1.29321    0.52783   1.00
C3       0.46684    1.20643    0.49311   1.00
C3       0.47726    1.29187    0.47236   1.00
C2       0.50302    1.14487    0.50047   1.00
C2       0.49727    1.35514    0.49966   1.00
C3       0.53685    1.16715    0.50699   1.00
C3       0.51925    1.33449    0.52751   1.00
C3       0.46805    1.16514    0.49348   1.00
C3a      0.47609    1.33328    0.47193   1.00
H1       0.56271    1.22425    0.51159   1.00
H1       0.53741    1.27875    0.55014   1.00
H1       0.56426    1.15240    0.51235   1.00
H1       0.53564    1.35056    0.54923   1.00
H1       0.44147    1.14882    0.48851   1.00
C5       0.45225    1.35380    0.44127   1.00
H1       0.46086    1.27622    0.45039   1.00
H1       0.43899    1.22059    0.48840   1.00
H2       0.45360    1.38599    0.44507   1.00
H2       0.46484    1.34705    0.41215   1.00
N1       0.41149    1.34125    0.44308   1.00
C6       0.38703    1.34644    0.47339   1.00
C6       0.39144    1.32288    0.41472   1.00
C6       0.35096    1.33102    0.46442   1.00
C6       0.35376    1.31604    0.42710   1.00
H3       0.39491    1.36049    0.50059   1.00
H3       0.40335    1.31484    0.38659   1.00
H3       0.32546    1.33076    0.48299   1.00
H3       0.33087    1.30180    0.41073   1.00
C4       0.27083    0.99973    0.49927   1.00
C4       0.22917    1.00027    0.50073   1.00
C3       0.29154    1.00670    0.46420   1.00
C3       0.20679    1.02783    0.47967   1.00
C3       0.29357    0.99311    0.53316   1.00
C3       0.20813    0.97236    0.52274   1.00
C2       0.35513    1.00047    0.49698   1.00
C2       0.14486    0.99966    0.50273   1.00
C3       0.33285    1.00699    0.46315   1.00
C3       0.16551    1.02751    0.48075   1.00
C3       0.33486    0.99348    0.53195   1.00
C3a      0.16672    0.97193    0.52391   1.00
H1       0.27575    1.01159    0.43729   1.00
H1       0.22125    1.05014    0.46259   1.00
H1       0.34760    1.01235    0.43574   1.00
H1       0.14944    1.04923    0.46436   1.00
H1       0.35118    0.98851    0.55853   1.00
C5       0.14620    0.94127    0.54775   1.00
H1       0.22378    0.95039    0.53914   1.00
H1       0.27941    0.98840    0.56101   1.00
H2       0.11401    0.94507    0.54640   1.00
H2       0.15295    0.91215    0.53516   1.00
N1       0.15875    0.94308    0.58851   1.00
C6       0.15356    0.97339    0.61297   1.00
C6       0.17712    0.91472    0.60856   1.00
C6       0.16898    0.96442    0.64904   1.00
C6       0.18396    0.92710    0.64624   1.00
H3       0.13951    1.00059    0.60509   1.00
H3       0.18516    0.88659    0.59665   1.00
H3       0.16924    0.98299    0.67454   1.00
H3       0.19820    0.91073    0.66913   1.00
C4       0.72917    0.99973    0.50073   1.00
C4       0.77083    1.00027    0.49927   1.00
C3       0.70846    1.00670    0.53580   1.00
C3       0.79321    1.02783    0.52033   1.00
C3       0.70643    0.99311    0.46684   1.00
C3       0.79187    0.97236    0.47726   1.00
C2       0.64487    1.00047    0.50302   1.00
C2       0.85514    0.99966    0.49727   1.00
C3       0.66715    1.00699    0.53685   1.00
C3       0.83449    1.02751    0.51925   1.00
C3       0.66514    0.99348    0.46805   1.00
C3a      0.83328    0.97193    0.47609   1.00
H1       0.72425    1.01159    0.56271   1.00
H1       0.77875    1.05014    0.53741   1.00
H1       0.65240    1.01235    0.56426   1.00
H1       0.85056    1.04923    0.53564   1.00
H1       0.64882    0.98851    0.44147   1.00
C5       0.85380    0.94127    0.45225   1.00
H1       0.77622    0.95039    0.46086   1.00
H1       0.72059    0.98840    0.43899   1.00
H2       0.88599    0.94507    0.45360   1.00
H2       0.84705    0.91215    0.46484   1.00
N1       0.84125    0.94308    0.41149   1.00
C6       0.84644    0.97339    0.38703   1.00
C6       0.82288    0.91472    0.39144   1.00
C6       0.83102    0.96442    0.35096   1.00
C6       0.81604    0.92710    0.35376   1.00
H3       0.86049    1.00059    0.39491   1.00
H3       0.81484    0.88659    0.40335   1.00
H3       0.83076    0.98299    0.32546   1.00
H3       0.80180    0.91073    0.33087   1.00
C4       0.49927    0.77083    0.49973   1.00
C4       0.50073    0.72917    0.50027   1.00
C3       0.46420    0.79154    0.50670   1.00
C3       0.47967    0.70679    0.52783   1.00
C3       0.53316    0.79357    0.49311   1.00
C3       0.52274    0.70813    0.47236   1.00
C2       0.49698    0.85513    0.50047   1.00
C2       0.50273    0.64486    0.49966   1.00
C3       0.46315    0.83285    0.50699   1.00
C3       0.48075    0.66551    0.52751   1.00
C3       0.53195    0.83486    0.49348   1.00
C3a      0.52391    0.66672    0.47193   1.00
H1       0.43729    0.77575    0.51159   1.00
H1       0.46259    0.72125    0.55014   1.00
H1       0.43574    0.84760    0.51235   1.00
H1       0.46436    0.64944    0.54923   1.00
H1       0.55853    0.85118    0.48851   1.00
C5       0.54775    0.64620    0.44127   1.00
H1       0.53914    0.72378    0.45039   1.00
H1       0.56101    0.77941    0.48840   1.00
H2       0.54640    0.61401    0.44507   1.00
H2       0.53516    0.65295    0.41215   1.00
N1       0.58851    0.65875    0.44308   1.00
C6       0.61297    0.65356    0.47339   1.00
C6       0.60856    0.67712    0.41472   1.00
C6       0.64904    0.66898    0.46442   1.00
C6       0.64624    0.68396    0.42710   1.00
H3       0.60509    0.63951    0.50059   1.00
H3       0.59665    0.68516    0.38659   1.00
H3       0.67454    0.66924    0.48299   1.00
H3       0.66913    0.69820    0.41073   1.00
C4       0.49973    0.99927    0.27083   1.00
C4       0.50027    1.00073    0.22917   1.00
C3       0.50670    0.96420    0.29154   1.00
C3       0.52783    0.97967    0.20679   1.00
C3       0.49311    1.03316    0.29357   1.00
C3       0.47236    1.02274    0.20813   1.00
C2       0.50047    0.99698    0.35513   1.00
C2       0.49966    1.00273    0.14486   1.00
C3       0.50699    0.96315    0.33285   1.00
C3       0.52751    0.98075    0.16551   1.00
C3       0.49348    1.03195    0.33486   1.00
C3a      0.47193    1.02391    0.16672   1.00
H1       0.51159    0.93729    0.27575   1.00
H1       0.55014    0.96259    0.22125   1.00
H1       0.51235    0.93574    0.34760   1.00
H1       0.54923    0.96436    0.14944   1.00
H1       0.48851    1.05853    0.35118   1.00
C5       0.44127    1.04775    0.14620   1.00
H1       0.45039    1.03914    0.22378   1.00
H1       0.48840    1.06101    0.27941   1.00
H2       0.44507    1.04640    0.11401   1.00
H2       0.41215    1.03516    0.15295   1.00
N1       0.44308    1.08851    0.15875   1.00
C6       0.47339    1.11297    0.15356   1.00
C6       0.41472    1.10856    0.17712   1.00
C6       0.46442    1.14904    0.16898   1.00
C6       0.42710    1.14624    0.18396   1.00
H3       0.50059    1.10509    0.13951   1.00
H3       0.38659    1.09665    0.18516   1.00
H3       0.48299    1.17454    0.16924   1.00
H3       0.41073    1.16913    0.19820   1.00
C4       0.99973    0.50073    0.72917   1.00
C4       1.00027    0.49927    0.77083   1.00
C3       1.00670    0.53580    0.70846   1.00
C3       1.02783    0.52033    0.79321   1.00
C3       0.99311    0.46684    0.70643   1.00
C3       0.97236    0.47726    0.79187   1.00
C2       1.00047    0.50302    0.64487   1.00
C2       0.99966    0.49727    0.85514   1.00
C3       1.00699    0.53685    0.66715   1.00
C3       1.02751    0.51925    0.83449   1.00
C3       0.99348    0.46805    0.66514   1.00
C3a      0.97193    0.47609    0.83328   1.00
H1       1.01159    0.56271    0.72425   1.00
H1       1.05014    0.53741    0.77875   1.00
H1       1.01235    0.56426    0.65240   1.00
H1       1.04923    0.53564    0.85056   1.00
H1       0.98851    0.44147    0.64882   1.00
C5       0.94127    0.45225    0.85380   1.00
H1       0.95039    0.46086    0.77622   1.00
H1       0.98840    0.43899    0.72059   1.00
H2       0.94507    0.45360    0.88599   1.00
H2       0.91215    0.46484    0.84705   1.00
N1       0.94308    0.41149    0.84125   1.00
C6       0.97339    0.38703    0.84644   1.00
C6       0.91472    0.39144    0.82288   1.00
C6       0.96442    0.35096    0.83102   1.00
C6       0.92710    0.35376    0.81604   1.00
H3       1.00059    0.39491    0.86049   1.00
H3       0.88659    0.40335    0.81484   1.00
H3       0.98299    0.32546    0.83076   1.00
H3       0.91073    0.33087    0.80180   1.00
C4       1.00073    0.72917    0.49973   1.00
C4       0.99927    0.77083    0.50027   1.00
C3       1.03580    0.70846    0.50670   1.00
C3       1.02033    0.79321    0.52783   1.00
C3       0.96684    0.70643    0.49311   1.00
C3       0.97726    0.79187    0.47236   1.00
C2       1.00302    0.64487    0.50047   1.00
C2       0.99727    0.85514    0.49966   1.00
C3       1.03685    0.66715    0.50699   1.00
C3       1.01925    0.83449    0.52751   1.00
C3       0.96805    0.66514    0.49348   1.00
C3a      0.97609    0.83328    0.47193   1.00
H1       1.06271    0.72425    0.51159   1.00
H1       1.03741    0.77875    0.55014   1.00
H1       1.06426    0.65240    0.51235   1.00
H1       1.03564    0.85056    0.54923   1.00
H1       0.94147    0.64882    0.48851   1.00
C5       0.95225    0.85380    0.44127   1.00
H1       0.96086    0.77622    0.45039   1.00
H1       0.93899    0.72059    0.48840   1.00
H2       0.95360    0.88599    0.44507   1.00
H2       0.96484    0.84705    0.41215   1.00
N1       0.91149    0.84125    0.44308   1.00
C6       0.88703    0.84644    0.47339   1.00
C6       0.89144    0.82288    0.41472   1.00
C6       0.85096    0.83102    0.46442   1.00
C6       0.85376    0.81604    0.42710   1.00
H3       0.89491    0.86049    0.50059   1.00
H3       0.90335    0.81484    0.38659   1.00
H3       0.82546    0.83076    0.48299   1.00
H3       0.83087    0.80180    0.41073   1.00
C4       0.77083    0.49973    0.49927   1.00
C4       0.72917    0.50027    0.50073   1.00
C3       0.79154    0.50670    0.46420   1.00
C3       0.70679    0.52783    0.47967   1.00
C3       0.79357    0.49311    0.53316   1.00
C3       0.70813    0.47236    0.52274   1.00
C2       0.85513    0.50047    0.49698   1.00
C2       0.64486    0.49966    0.50273   1.00
C3       0.83285    0.50699    0.46315   1.00
C3       0.66551    0.52751    0.48075   1.00
C3       0.83486    0.49348    0.53195   1.00
C3a      0.66672    0.47193    0.52391   1.00
H1       0.77575    0.51159    0.43729   1.00
H1       0.72125    0.55014    0.46259   1.00
H1       0.84760    0.51235    0.43574   1.00
H1       0.64944    0.54923    0.46436   1.00
H1       0.85118    0.48851    0.55853   1.00
C5       0.64620    0.44127    0.54775   1.00
H1       0.72378    0.45039    0.53914   1.00
H1       0.77941    0.48840    0.56101   1.00
H2       0.61401    0.44507    0.54640   1.00
H2       0.65295    0.41215    0.53516   1.00
N1       0.65875    0.44308    0.58851   1.00
C6       0.65356    0.47339    0.61297   1.00
C6       0.67712    0.41472    0.60856   1.00
C6       0.66898    0.46442    0.64904   1.00
C6       0.68396    0.42710    0.64624   1.00
H3       0.63951    0.50059    0.60509   1.00
H3       0.68516    0.38659    0.59665   1.00
H3       0.66924    0.48299    0.67454   1.00
H3       0.69820    0.41073    0.66913   1.00
C4       1.22917    0.49973    0.50073   1.00
C4       1.27083    0.50027    0.49927   1.00
C3       1.20846    0.50670    0.53580   1.00
C3       1.29321    0.52783    0.52033   1.00
C3       1.20643    0.49311    0.46684   1.00
C3       1.29187    0.47236    0.47726   1.00
C2       1.14487    0.50047    0.50302   1.00
C2       1.35514    0.49966    0.49727   1.00
C3       1.16715    0.50699    0.53685   1.00
C3       1.33449    0.52751    0.51925   1.00
C3       1.16514    0.49348    0.46805   1.00
C3a      1.33328    0.47193    0.47609   1.00
H1       1.22425    0.51159    0.56271   1.00
H1       1.27875    0.55014    0.53741   1.00
H1       1.15240    0.51235    0.56426   1.00
H1       1.35056    0.54923    0.53564   1.00
H1       1.14882    0.48851    0.44147   1.00
C5       1.35380    0.44127    0.45225   1.00
H1       1.27622    0.45039    0.46086   1.00
H1       1.22059    0.48840    0.43899   1.00
H2       1.38599    0.44507    0.45360   1.00
H2       1.34705    0.41215    0.46484   1.00
N1       1.34125    0.44308    0.41149   1.00
C6       1.34644    0.47339    0.38703   1.00
C6       1.32288    0.41472    0.39144   1.00
C6       1.33102    0.46442    0.35096   1.00
C6       1.31604    0.42710    0.35376   1.00
H3       1.36049    0.50059    0.39491   1.00
H3       1.31484    0.38659    0.40335   1.00
H3       1.33076    0.48299    0.32546   1.00
H3       1.30180    0.41073    0.33087   1.00
C4       0.99927    0.27083    0.49973   1.00
C4       1.00073    0.22917    0.50027   1.00
C3       0.96420    0.29154    0.50670   1.00
C3       0.97967    0.20679    0.52783   1.00
C3       1.03316    0.29357    0.49311   1.00
C3       1.02274    0.20813    0.47236   1.00
C2       0.99698    0.35513    0.50047   1.00
C2       1.00273    0.14486    0.49966   1.00
C3       0.96315    0.33285    0.50699   1.00
C3       0.98075    0.16551    0.52751   1.00
C3       1.03195    0.33486    0.49348   1.00
C3a      1.02391    0.16672    0.47193   1.00
H1       0.93729    0.27575    0.51159   1.00
H1       0.96259    0.22125    0.55014   1.00
H1       0.93574    0.34760    0.51235   1.00
H1       0.96436    0.14944    0.54923   1.00
H1       1.05853    0.35118    0.48851   1.00
C5       1.04775    0.14620    0.44127   1.00
H1       1.03914    0.22378    0.45039   1.00
H1       1.06101    0.27941    0.48840   1.00
H2       1.04640    0.11401    0.44507   1.00
H2       1.03516    0.15295    0.41215   1.00
N1       1.08851    0.15875    0.44308   1.00
C6       1.11297    0.15356    0.47339   1.00
C6       1.10856    0.17712    0.41472   1.00
C6       1.14904    0.16898    0.46442   1.00
C6       1.14624    0.18396    0.42710   1.00
H3       1.10509    0.13951    0.50059   1.00
H3       1.09665    0.18516    0.38659   1.00
H3       1.17454    0.16924    0.48299   1.00
H3       1.16913    0.19820    0.41073   1.00
C4       0.99973    0.49927    0.27083   1.00
C4       1.00027    0.50073    0.22917   1.00
C3       1.00670    0.46420    0.29154   1.00
C3       1.02783    0.47967    0.20679   1.00
C3       0.99311    0.53316    0.29357   1.00
C3       0.97236    0.52274    0.20813   1.00
C2       1.00047    0.49698    0.35513   1.00
C2       0.99966    0.50273    0.14486   1.00
C3       1.00699    0.46315    0.33285   1.00
C3       1.02751    0.48075    0.16551   1.00
C3       0.99348    0.53195    0.33486   1.00
C3a      0.97193    0.52391    0.16672   1.00
H1       1.01159    0.43729    0.27575   1.00
H1       1.05014    0.46259    0.22125   1.00
H1       1.01235    0.43574    0.34760   1.00
H1       1.04923    0.46436    0.14944   1.00
H1       0.98851    0.55853    0.35118   1.00
C5       0.94127    0.54775    0.14620   1.00
H1       0.95039    0.53914    0.22378   1.00
H1       0.98840    0.56101    0.27941   1.00
H2       0.94507    0.54640    0.11401   1.00
H2       0.91215    0.53516    0.15295   1.00
N1       0.94308    0.58851    0.15875   1.00
C6       0.97339    0.61297    0.15356   1.00
C6       0.91472    0.60856    0.17712   1.00
C6       0.96442    0.64904    0.16898   1.00
C6       0.92710    0.64624    0.18396   1.00
H3       1.00059    0.60509    0.13951   1.00
H3       0.88659    0.59665    0.18516   1.00
H3       0.98299    0.67454    0.16924   1.00
H3       0.91073    0.66913    0.19820   1.00
