data_IRMOF10_SG202_interpen_Ligand12lp_label_r.

_audit_creation_method             'generated by an auxiliary program of Tobunporous'

_symmetry_space_group_name_H-M     'P 1'
_symmetry_Int_Tables_number        1
_symmetry_cell_setting             triclinic

_cell_length_a                    34.2800
_cell_length_b                    34.2800
_cell_length_c                    34.2800
_cell_angle_alpha                 90.0000
_cell_angle_beta                  90.0000
_cell_angle_gamma                 90.0000

loop_
_atom_site_label
_atom_site_fract_x
_atom_site_fract_y
_atom_site_fract_z
_atom_site_occupancy
O1       0.75000    0.75000    0.75000   1.00
Zn1      0.71720    0.78280    0.78280   1.00
Zn1      0.78280    0.71720    0.78280   1.00
Zn1      0.78280    0.78280    0.71720   1.00
Zn1      0.71720    0.71720    0.71720   1.00
O2       0.72650    0.77350    0.83820   1.00
O2       0.72650    0.83820    0.77350   1.00
O2       0.66180    0.77350    0.77350   1.00
O2       0.77350    0.72650    0.83820   1.00
O2       0.83820    0.72650    0.77350   1.00
O2       0.77350    0.66180    0.77350   1.00
O2       0.77350    0.83820    0.72650   1.00
O2       0.83820    0.77350    0.72650   1.00
O2       0.77350    0.77350    0.66180   1.00
O2       0.66180    0.72650    0.72650   1.00
O2       0.72650    0.66180    0.72650   1.00
O2       0.72650    0.72650    0.66180   1.00
C1       0.75000    0.75000    0.85520   1.00
C1       0.75000    0.85520    0.75000   1.00
C1       0.64480    0.75000    0.75000   1.00
C1       0.85520    0.75000    0.75000   1.00
C1       0.75000    0.64480    0.75000   1.00
C1       0.75000    0.75000    0.64480   1.00
O1       0.25000    0.25000    0.75000   1.00
Zn1      0.21720    0.28280    0.78280   1.00
Zn1      0.28280    0.21720    0.78280   1.00
Zn1      0.28280    0.28280    0.71720   1.00
Zn1      0.21720    0.21720    0.71720   1.00
O2       0.22650    0.27350    0.83820   1.00
O2       0.22650    0.33820    0.77350   1.00
O2       0.16180    0.27350    0.77350   1.00
O2       0.27350    0.22650    0.83820   1.00
O2       0.33820    0.22650    0.77350   1.00
O2       0.27350    0.16180    0.77350   1.00
O2       0.27350    0.33820    0.72650   1.00
O2       0.33820    0.27350    0.72650   1.00
O2       0.27350    0.27350    0.66180   1.00
O2       0.16180    0.22650    0.72650   1.00
O2       0.22650    0.16180    0.72650   1.00
O2       0.22650    0.22650    0.66180   1.00
C1       0.25000    0.25000    0.85520   1.00
C1       0.25000    0.35520    0.75000   1.00
C1       0.14480    0.25000    0.75000   1.00
C1       0.35520    0.25000    0.75000   1.00
C1       0.25000    0.14480    0.75000   1.00
C1       0.25000    0.25000    0.64480   1.00
O1       0.25000    0.75000    0.25000   1.00
Zn1      0.21720    0.78280    0.28280   1.00
Zn1      0.28280    0.71720    0.28280   1.00
Zn1      0.28280    0.78280    0.21720   1.00
Zn1      0.21720    0.71720    0.21720   1.00
O2       0.22650    0.77350    0.33820   1.00
O2       0.22650    0.83820    0.27350   1.00
O2       0.16180    0.77350    0.27350   1.00
O2       0.27350    0.72650    0.33820   1.00
O2       0.33820    0.72650    0.27350   1.00
O2       0.27350    0.66180    0.27350   1.00
O2       0.27350    0.83820    0.22650   1.00
O2       0.33820    0.77350    0.22650   1.00
O2       0.27350    0.77350    0.16180   1.00
O2       0.16180    0.72650    0.22650   1.00
O2       0.22650    0.66180    0.22650   1.00
O2       0.22650    0.72650    0.16180   1.00
C1       0.25000    0.75000    0.35520   1.00
C1       0.25000    0.85520    0.25000   1.00
C1       0.14480    0.75000    0.25000   1.00
C1       0.35520    0.75000    0.25000   1.00
C1       0.25000    0.64480    0.25000   1.00
C1       0.25000    0.75000    0.14480   1.00
O1       0.75000    0.25000    0.25000   1.00
Zn1      0.71720    0.28280    0.28280   1.00
Zn1      0.78280    0.21720    0.28280   1.00
Zn1      0.78280    0.28280    0.21720   1.00
Zn1      0.71720    0.21720    0.21720   1.00
O2       0.72650    0.27350    0.33820   1.00
O2       0.72650    0.33820    0.27350   1.00
O2       0.66180    0.27350    0.27350   1.00
O2       0.77350    0.22650    0.33820   1.00
O2       0.83820    0.22650    0.27350   1.00
O2       0.77350    0.16180    0.27350   1.00
O2       0.77350    0.33820    0.22650   1.00
O2       0.83820    0.27350    0.22650   1.00
O2       0.77350    0.27350    0.16180   1.00
O2       0.66180    0.22650    0.22650   1.00
O2       0.72650    0.16180    0.22650   1.00
O2       0.72650    0.22650    0.16180   1.00
C1       0.75000    0.25000    0.35520   1.00
C1       0.75000    0.35520    0.25000   1.00
C1       0.64480    0.25000    0.25000   1.00
C1       0.85520    0.25000    0.25000   1.00
C1       0.75000    0.14480    0.25000   1.00
C1       0.75000    0.25000    0.14480   1.00
O1       0.25000    0.25000    0.25000   1.00
Zn1      0.28280    0.21720    0.21720   1.00
Zn1      0.21720    0.28280    0.21720   1.00
Zn1      0.21720    0.21720    0.28280   1.00
Zn1      0.28280    0.28280    0.28280   1.00
O2       0.27350    0.22650    0.16180   1.00
O2       0.27350    0.16180    0.22650   1.00
O2       0.33820    0.22650    0.22650   1.00
O2       0.22650    0.27350    0.16180   1.00
O2       0.16180    0.27350    0.22650   1.00
O2       0.22650    0.33820    0.22650   1.00
O2       0.22650    0.16180    0.27350   1.00
O2       0.16180    0.22650    0.27350   1.00
O2       0.22650    0.22650    0.33820   1.00
O2       0.33820    0.27350    0.27350   1.00
O2       0.27350    0.33820    0.27350   1.00
O2       0.27350    0.27350    0.33820   1.00
C1       0.25000    0.25000    0.14480   1.00
C1       0.25000    0.14480    0.25000   1.00
C1       0.35520    0.25000    0.25000   1.00
C1       0.14480    0.25000    0.25000   1.00
C1       0.25000    0.35520    0.25000   1.00
C1       0.25000    0.25000    0.35520   1.00
O1       0.75000    0.75000    0.25000   1.00
Zn1      0.78280    0.71720    0.21720   1.00
Zn1      0.71720    0.78280    0.21720   1.00
Zn1      0.71720    0.71720    0.28280   1.00
Zn1      0.78280    0.78280    0.28280   1.00
O2       0.77350    0.72650    0.16180   1.00
O2       0.77350    0.66180    0.22650   1.00
O2       0.83820    0.72650    0.22650   1.00
O2       0.72650    0.77350    0.16180   1.00
O2       0.66180    0.77350    0.22650   1.00
O2       0.72650    0.83820    0.22650   1.00
O2       0.72650    0.66180    0.27350   1.00
O2       0.66180    0.72650    0.27350   1.00
O2       0.72650    0.72650    0.33820   1.00
O2       0.83820    0.77350    0.27350   1.00
O2       0.77350    0.83820    0.27350   1.00
O2       0.77350    0.77350    0.33820   1.00
C1       0.75000    0.75000    0.14480   1.00
C1       0.75000    0.64480    0.25000   1.00
C1       0.85520    0.75000    0.25000   1.00
C1       0.64480    0.75000    0.25000   1.00
C1       0.75000    0.85520    0.25000   1.00
C1       0.75000    0.75000    0.35520   1.00
O1       0.75000    0.25000    0.75000   1.00
Zn1      0.78280    0.21720    0.71720   1.00
Zn1      0.71720    0.28280    0.71720   1.00
Zn1      0.71720    0.21720    0.78280   1.00
Zn1      0.78280    0.28280    0.78280   1.00
O2       0.77350    0.22650    0.66180   1.00
O2       0.77350    0.16180    0.72650   1.00
O2       0.83820    0.22650    0.72650   1.00
O2       0.72650    0.27350    0.66180   1.00
O2       0.66180    0.27350    0.72650   1.00
O2       0.72650    0.33820    0.72650   1.00
O2       0.72650    0.16180    0.77350   1.00
O2       0.66180    0.22650    0.77350   1.00
O2       0.72650    0.22650    0.83820   1.00
O2       0.83820    0.27350    0.77350   1.00
O2       0.77350    0.33820    0.77350   1.00
O2       0.77350    0.27350    0.83820   1.00
C1       0.75000    0.25000    0.64480   1.00
C1       0.75000    0.14480    0.75000   1.00
C1       0.85520    0.25000    0.75000   1.00
C1       0.64480    0.25000    0.75000   1.00
C1       0.75000    0.35520    0.75000   1.00
C1       0.75000    0.25000    0.85520   1.00
O1       0.25000    0.75000    0.75000   1.00
Zn1      0.28280    0.71720    0.71720   1.00
Zn1      0.21720    0.78280    0.71720   1.00
Zn1      0.21720    0.71720    0.78280   1.00
Zn1      0.28280    0.78280    0.78280   1.00
O2       0.27350    0.72650    0.66180   1.00
O2       0.27350    0.66180    0.72650   1.00
O2       0.33820    0.72650    0.72650   1.00
O2       0.22650    0.77350    0.66180   1.00
O2       0.16180    0.77350    0.72650   1.00
O2       0.22650    0.83820    0.72650   1.00
O2       0.22650    0.66180    0.77350   1.00
O2       0.16180    0.72650    0.77350   1.00
O2       0.22650    0.72650    0.83820   1.00
O2       0.33820    0.77350    0.77350   1.00
O2       0.27350    0.83820    0.77350   1.00
O2       0.27350    0.77350    0.83820   1.00
C1       0.25000    0.75000    0.64480   1.00
C1       0.25000    0.64480    0.75000   1.00
C1       0.35520    0.75000    0.75000   1.00
C1       0.14480    0.75000    0.75000   1.00
C1       0.25000    0.85520    0.75000   1.00
C1       0.25000    0.75000    0.85520   1.00
O1       1.00000    1.00000    1.00000   1.00
Zn1      0.96720    1.03280    1.03280   1.00
Zn1      1.03280    0.96720    1.03280   1.00
Zn1      1.03280    1.03280    0.96720   1.00
Zn1      0.96720    0.96720    0.96720   1.00
O2       0.97650    1.02350    1.08820   1.00
O2       0.97650    1.08820    1.02350   1.00
O2       0.91180    1.02350    1.02350   1.00
O2       1.02350    0.97650    1.08820   1.00
O2       1.08820    0.97650    1.02350   1.00
O2       1.02350    0.91180    1.02350   1.00
O2       1.02350    1.08820    0.97650   1.00
O2       1.08820    1.02350    0.97650   1.00
O2       1.02350    1.02350    0.91180   1.00
O2       0.91180    0.97650    0.97650   1.00
O2       0.97650    0.91180    0.97650   1.00
O2       0.97650    0.97650    0.91180   1.00
C1       1.00000    1.00000    1.10520   1.00
C1       1.00000    1.10520    1.00000   1.00
C1       0.89480    1.00000    1.00000   1.00
C1       1.10520    1.00000    1.00000   1.00
C1       1.00000    0.89480    1.00000   1.00
C1       1.00000    1.00000    0.89480   1.00
O1       0.50000    0.50000    1.00000   1.00
Zn1      0.46720    0.53280    1.03280   1.00
Zn1      0.53280    0.46720    1.03280   1.00
Zn1      0.53280    0.53280    0.96720   1.00
Zn1      0.46720    0.46720    0.96720   1.00
O2       0.47650    0.52350    1.08820   1.00
O2       0.47650    0.58820    1.02350   1.00
O2       0.41180    0.52350    1.02350   1.00
O2       0.52350    0.47650    1.08820   1.00
O2       0.58820    0.47650    1.02350   1.00
O2       0.52350    0.41180    1.02350   1.00
O2       0.52350    0.58820    0.97650   1.00
O2       0.58820    0.52350    0.97650   1.00
O2       0.52350    0.52350    0.91180   1.00
O2       0.41180    0.47650    0.97650   1.00
O2       0.47650    0.41180    0.97650   1.00
O2       0.47650    0.47650    0.91180   1.00
C1       0.50000    0.50000    1.10520   1.00
C1       0.50000    0.60520    1.00000   1.00
C1       0.39480    0.50000    1.00000   1.00
C1       0.60520    0.50000    1.00000   1.00
C1       0.50000    0.39480    1.00000   1.00
C1       0.50000    0.50000    0.89480   1.00
O1       0.50000    1.00000    0.50000   1.00
Zn1      0.46720    1.03280    0.53280   1.00
Zn1      0.53280    0.96720    0.53280   1.00
Zn1      0.53280    1.03280    0.46720   1.00
Zn1      0.46720    0.96720    0.46720   1.00
O2       0.47650    1.02350    0.58820   1.00
O2       0.47650    1.08820    0.52350   1.00
O2       0.41180    1.02350    0.52350   1.00
O2       0.52350    0.97650    0.58820   1.00
O2       0.58820    0.97650    0.52350   1.00
O2       0.52350    0.91180    0.52350   1.00
O2       0.52350    1.08820    0.47650   1.00
O2       0.58820    1.02350    0.47650   1.00
O2       0.52350    1.02350    0.41180   1.00
O2       0.41180    0.97650    0.47650   1.00
O2       0.47650    0.91180    0.47650   1.00
O2       0.47650    0.97650    0.41180   1.00
C1       0.50000    1.00000    0.60520   1.00
C1       0.50000    1.10520    0.50000   1.00
C1       0.39480    1.00000    0.50000   1.00
C1       0.60520    1.00000    0.50000   1.00
C1       0.50000    0.89480    0.50000   1.00
C1       0.50000    1.00000    0.39480   1.00
O1       1.00000    0.50000    0.50000   1.00
Zn1      0.96720    0.53280    0.53280   1.00
Zn1      1.03280    0.46720    0.53280   1.00
Zn1      1.03280    0.53280    0.46720   1.00
Zn1      0.96720    0.46720    0.46720   1.00
O2       0.97650    0.52350    0.58820   1.00
O2       0.97650    0.58820    0.52350   1.00
O2       0.91180    0.52350    0.52350   1.00
O2       1.02350    0.47650    0.58820   1.00
O2       1.08820    0.47650    0.52350   1.00
O2       1.02350    0.41180    0.52350   1.00
O2       1.02350    0.58820    0.47650   1.00
O2       1.08820    0.52350    0.47650   1.00
O2       1.02350    0.52350    0.41180   1.00
O2       0.91180    0.47650    0.47650   1.00
O2       0.97650    0.41180    0.47650   1.00
O2       0.97650    0.47650    0.41180   1.00
C1       1.00000    0.50000    0.60520   1.00
C1       1.00000    0.60520    0.50000   1.00
C1       0.89480    0.50000    0.50000   1.00
C1       1.10520    0.50000    0.50000   1.00
C1       1.00000    0.39480    0.50000   1.00
C1       1.00000    0.50000    0.39480   1.00
O1       0.50000    0.50000    0.50000   1.00
Zn1      0.53280    0.46720    0.46720   1.00
Zn1      0.46720    0.53280    0.46720   1.00
Zn1      0.46720    0.46720    0.53280   1.00
Zn1      0.53280    0.53280    0.53280   1.00
O2       0.52350    0.47650    0.41180   1.00
O2       0.52350    0.41180    0.47650   1.00
O2       0.58820    0.47650    0.47650   1.00
O2       0.47650    0.52350    0.41180   1.00
O2       0.41180    0.52350    0.47650   1.00
O2       0.47650    0.58820    0.47650   1.00
O2       0.47650    0.41180    0.52350   1.00
O2       0.41180    0.47650    0.52350   1.00
O2       0.47650    0.47650    0.58820   1.00
O2       0.58820    0.52350    0.52350   1.00
O2       0.52350    0.58820    0.52350   1.00
O2       0.52350    0.52350    0.58820   1.00
C1       0.50000    0.50000    0.39480   1.00
C1       0.50000    0.39480    0.50000   1.00
C1       0.60520    0.50000    0.50000   1.00
C1       0.39480    0.50000    0.50000   1.00
C1       0.50000    0.60520    0.50000   1.00
C1       0.50000    0.50000    0.60520   1.00
O1       1.00000    1.00000    0.50000   1.00
Zn1      1.03280    0.96720    0.46720   1.00
Zn1      0.96720    1.03280    0.46720   1.00
Zn1      0.96720    0.96720    0.53280   1.00
Zn1      1.03280    1.03280    0.53280   1.00
O2       1.02350    0.97650    0.41180   1.00
O2       1.02350    0.91180    0.47650   1.00
O2       1.08820    0.97650    0.47650   1.00
O2       0.97650    1.02350    0.41180   1.00
O2       0.91180    1.02350    0.47650   1.00
O2       0.97650    1.08820    0.47650   1.00
O2       0.97650    0.91180    0.52350   1.00
O2       0.91180    0.97650    0.52350   1.00
O2       0.97650    0.97650    0.58820   1.00
O2       1.08820    1.02350    0.52350   1.00
O2       1.02350    1.08820    0.52350   1.00
O2       1.02350    1.02350    0.58820   1.00
C1       1.00000    1.00000    0.39480   1.00
C1       1.00000    0.89480    0.50000   1.00
C1       1.10520    1.00000    0.50000   1.00
C1       0.89480    1.00000    0.50000   1.00
C1       1.00000    1.10520    0.50000   1.00
C1       1.00000    1.00000    0.60520   1.00
O1       1.00000    0.50000    1.00000   1.00
Zn1      1.03280    0.46720    0.96720   1.00
Zn1      0.96720    0.53280    0.96720   1.00
Zn1      0.96720    0.46720    1.03280   1.00
Zn1      1.03280    0.53280    1.03280   1.00
O2       1.02350    0.47650    0.91180   1.00
O2       1.02350    0.41180    0.97650   1.00
O2       1.08820    0.47650    0.97650   1.00
O2       0.97650    0.52350    0.91180   1.00
O2       0.91180    0.52350    0.97650   1.00
O2       0.97650    0.58820    0.97650   1.00
O2       0.97650    0.41180    1.02350   1.00
O2       0.91180    0.47650    1.02350   1.00
O2       0.97650    0.47650    1.08820   1.00
O2       1.08820    0.52350    1.02350   1.00
O2       1.02350    0.58820    1.02350   1.00
O2       1.02350    0.52350    1.08820   1.00
C1       1.00000    0.50000    0.89480   1.00
C1       1.00000    0.39480    1.00000   1.00
C1       1.10520    0.50000    1.00000   1.00
C1       0.89480    0.50000    1.00000   1.00
C1       1.00000    0.60520    1.00000   1.00
C1       1.00000    0.50000    1.10520   1.00
O1       0.50000    1.00000    1.00000   1.00
Zn1      0.53280    0.96720    0.96720   1.00
Zn1      0.46720    1.03280    0.96720   1.00
Zn1      0.46720    0.96720    1.03280   1.00
Zn1      0.53280    1.03280    1.03280   1.00
O2       0.52350    0.97650    0.91180   1.00
O2       0.52350    0.91180    0.97650   1.00
O2       0.58820    0.97650    0.97650   1.00
O2       0.47650    1.02350    0.91180   1.00
O2       0.41180    1.02350    0.97650   1.00
O2       0.47650    1.08820    0.97650   1.00
O2       0.47650    0.91180    1.02350   1.00
O2       0.41180    0.97650    1.02350   1.00
O2       0.47650    0.97650    1.08820   1.00
O2       0.58820    1.02350    1.02350   1.00
O2       0.52350    1.08820    1.02350   1.00
O2       0.52350    1.02350    1.08820   1.00
C1       0.50000    1.00000    0.89480   1.00
C1       0.50000    0.89480    1.00000   1.00
C1       0.60520    1.00000    1.00000   1.00
C1       0.39480    1.00000    1.00000   1.00
C1       0.50000    1.10520    1.00000   1.00
C1       0.50000    1.00000    1.10520   1.00
C4       0.74980    0.74925    1.02067   1.00
C4       0.75020    0.75075    0.97933   1.00
C3       0.71489    0.75480    1.04244   1.00
C3       0.71719    0.76339    0.95756   1.00
C4       0.78500    0.74234    1.04150   1.00
C4       0.78414    0.73914    0.95850   1.00
C2       0.74940    0.75018    1.10352   1.00
C2       0.74939    0.75015    0.89648   1.00
C3       0.71496    0.75559    1.08310   1.00
C3       0.71686    0.76268    0.91690   1.00
C3       0.78396    0.74309    1.08306   1.00
C3       0.78287    0.73901    0.91694   1.00
H1       0.68671    0.75771    1.02888   1.00
H1       0.69133    0.77496    0.97112   1.00
C5       0.82011    0.73431    1.02065   1.00
C5       0.81857    0.72854    0.97935   1.00
H1       0.68796    0.76020    1.09886   1.00
H1       0.69117    0.77218    0.90114   1.00
H1       0.80954    0.73764    1.10053   1.00
H1       0.80775    0.73094    0.89947   1.00
C6       0.85912    0.73346    1.04234   1.00
C6       0.85277    0.70978    0.95766   1.00
H2       0.88282    0.74507    1.02358   1.00
H2       0.85948    0.75380    1.06737   1.00
C6       0.86848    0.69222    1.05724   1.00
H2       0.86750    0.68788    0.97642   1.00
H2       0.84292    0.69198    0.93263   1.00
C6       0.88150    0.74081    0.94276   1.00
H2       0.86930    0.67095    1.03274   1.00
C6       0.90771    0.69175    1.07832   1.00
H2       0.84520    0.68226    1.07760   1.00
C6       0.91571    0.72161    0.92168   1.00
H2       0.86631    0.76108    0.92240   1.00
H2       0.89284    0.75883    0.96726   1.00
H2       0.93150    0.70079    1.05822   1.00
H2       0.90719    0.71180    1.10380   1.00
H2       0.91411    0.66182    1.08898   1.00
H2       0.93179    0.70189    0.94178   1.00
H2       0.90524    0.70451    0.89620   1.00
H2       0.93622    0.74434    0.91102   1.00
C4       0.74925    1.02067    0.74980   1.00
C4       0.75075    0.97933    0.75020   1.00
C3       0.75480    1.04244    0.71489   1.00
C3       0.76339    0.95756    0.71719   1.00
C4       0.74234    1.04150    0.78500   1.00
C4       0.73914    0.95850    0.78414   1.00
C2       0.75018    1.10352    0.74940   1.00
C2       0.75015    0.89648    0.74939   1.00
C3       0.75559    1.08310    0.71496   1.00
C3       0.76268    0.91690    0.71686   1.00
C3       0.74309    1.08306    0.78396   1.00
C3       0.73901    0.91694    0.78287   1.00
H1       0.75771    1.02888    0.68671   1.00
H1       0.77496    0.97112    0.69133   1.00
C5       0.73431    1.02065    0.82011   1.00
C5       0.72854    0.97935    0.81857   1.00
H1       0.76020    1.09886    0.68796   1.00
H1       0.77218    0.90114    0.69117   1.00
H1       0.73764    1.10053    0.80954   1.00
H1       0.73094    0.89947    0.80775   1.00
C6       0.73346    1.04234    0.85912   1.00
C6       0.70978    0.95766    0.85277   1.00
H2       0.74507    1.02358    0.88282   1.00
H2       0.75380    1.06737    0.85948   1.00
C6       0.69222    1.05724    0.86848   1.00
H2       0.68788    0.97642    0.86750   1.00
H2       0.69198    0.93263    0.84292   1.00
C6       0.74081    0.94276    0.88150   1.00
H2       0.67095    1.03274    0.86930   1.00
C6       0.69175    1.07832    0.90771   1.00
H2       0.68226    1.07760    0.84520   1.00
C6       0.72161    0.92168    0.91571   1.00
H2       0.76108    0.92240    0.86631   1.00
H2       0.75883    0.96726    0.89284   1.00
H2       0.70079    1.05822    0.93150   1.00
H2       0.71180    1.10380    0.90719   1.00
H2       0.66182    1.08898    0.91411   1.00
H2       0.70189    0.94178    0.93179   1.00
H2       0.70451    0.89620    0.90524   1.00
H2       0.74434    0.91102    0.93622   1.00
C4       0.47933    0.74980    0.75075   1.00
C4       0.52067    0.75020    0.74925   1.00
C3       0.45756    0.71489    0.74520   1.00
C3       0.54244    0.71719    0.73661   1.00
C4       0.45850    0.78500    0.75766   1.00
C4       0.54150    0.78414    0.76086   1.00
C2       0.39648    0.74940    0.74982   1.00
C2       0.60352    0.74939    0.74985   1.00
C3       0.41690    0.71496    0.74441   1.00
C3       0.58310    0.71686    0.73732   1.00
C3       0.41694    0.78396    0.75691   1.00
C3       0.58306    0.78287    0.76099   1.00
H1       0.47112    0.68671    0.74229   1.00
H1       0.52888    0.69133    0.72504   1.00
C5       0.47935    0.82011    0.76569   1.00
C5       0.52065    0.81857    0.77146   1.00
H1       0.40114    0.68796    0.73980   1.00
H1       0.59886    0.69117    0.72782   1.00
H1       0.39947    0.80954    0.76236   1.00
H1       0.60053    0.80775    0.76906   1.00
C6       0.45766    0.85912    0.76654   1.00
C6       0.54234    0.85277    0.79022   1.00
H2       0.47642    0.88282    0.75493   1.00
H2       0.43263    0.85948    0.74620   1.00
C6       0.44276    0.86848    0.80778   1.00
H2       0.52358    0.86750    0.81212   1.00
H2       0.56737    0.84292    0.80802   1.00
C6       0.55724    0.88150    0.75919   1.00
H2       0.46726    0.86930    0.82905   1.00
C6       0.42168    0.90771    0.80825   1.00
H2       0.42240    0.84520    0.81774   1.00
C6       0.57832    0.91571    0.77839   1.00
H2       0.57760    0.86631    0.73892   1.00
H2       0.53274    0.89284    0.74117   1.00
H2       0.44178    0.93150    0.79921   1.00
H2       0.39620    0.90719    0.78820   1.00
H2       0.41102    0.91411    0.83818   1.00
H2       0.55822    0.93179    0.79811   1.00
H2       0.60380    0.90524    0.79549   1.00
H2       0.58898    0.93622    0.75566   1.00
C4       1.02067    0.74980    0.74925   1.00
C4       0.97933    0.75020    0.75075   1.00
C3       1.04244    0.71489    0.75480   1.00
C3       0.95756    0.71719    0.76339   1.00
C4       1.04150    0.78500    0.74234   1.00
C4       0.95850    0.78414    0.73914   1.00
C2       1.10352    0.74940    0.75018   1.00
C2       0.89648    0.74939    0.75015   1.00
C3       1.08310    0.71496    0.75559   1.00
C3       0.91690    0.71686    0.76268   1.00
C3       1.08306    0.78396    0.74309   1.00
C3       0.91694    0.78287    0.73901   1.00
H1       1.02888    0.68671    0.75771   1.00
H1       0.97112    0.69133    0.77496   1.00
C5       1.02065    0.82011    0.73431   1.00
C5       0.97935    0.81857    0.72854   1.00
H1       1.09886    0.68796    0.76020   1.00
H1       0.90114    0.69117    0.77218   1.00
H1       1.10053    0.80954    0.73764   1.00
H1       0.89947    0.80775    0.73094   1.00
C6       1.04234    0.85912    0.73346   1.00
C6       0.95766    0.85277    0.70978   1.00
H2       1.02358    0.88282    0.74507   1.00
H2       1.06737    0.85948    0.75380   1.00
C6       1.05724    0.86848    0.69222   1.00
H2       0.97642    0.86750    0.68788   1.00
H2       0.93263    0.84292    0.69198   1.00
C6       0.94276    0.88150    0.74081   1.00
H2       1.03274    0.86930    0.67095   1.00
C6       1.07832    0.90771    0.69175   1.00
H2       1.07760    0.84520    0.68226   1.00
C6       0.92168    0.91571    0.72161   1.00
H2       0.92240    0.86631    0.76108   1.00
H2       0.96726    0.89284    0.75883   1.00
H2       1.05822    0.93150    0.70079   1.00
H2       1.10380    0.90719    0.71180   1.00
H2       1.08898    0.91411    0.66182   1.00
H2       0.94178    0.93179    0.70189   1.00
H2       0.89620    0.90524    0.70451   1.00
H2       0.91102    0.93622    0.74434   1.00
C4       0.75075    0.47933    0.74980   1.00
C4       0.74925    0.52067    0.75020   1.00
C3       0.74520    0.45756    0.71489   1.00
C3       0.73661    0.54244    0.71719   1.00
C4       0.75766    0.45850    0.78500   1.00
C4       0.76086    0.54150    0.78414   1.00
C2       0.74982    0.39648    0.74940   1.00
C2       0.74985    0.60352    0.74939   1.00
C3       0.74441    0.41690    0.71496   1.00
C3       0.73732    0.58310    0.71686   1.00
C3       0.75691    0.41694    0.78396   1.00
C3       0.76099    0.58306    0.78287   1.00
H1       0.74229    0.47112    0.68671   1.00
H1       0.72504    0.52888    0.69133   1.00
C5       0.76569    0.47935    0.82011   1.00
C5       0.77146    0.52065    0.81857   1.00
H1       0.73980    0.40114    0.68796   1.00
H1       0.72782    0.59886    0.69117   1.00
H1       0.76236    0.39947    0.80954   1.00
H1       0.76906    0.60053    0.80775   1.00
C6       0.76654    0.45766    0.85912   1.00
C6       0.79022    0.54234    0.85277   1.00
H2       0.75493    0.47642    0.88282   1.00
H2       0.74620    0.43263    0.85948   1.00
C6       0.80778    0.44276    0.86848   1.00
H2       0.81212    0.52358    0.86750   1.00
H2       0.80802    0.56737    0.84292   1.00
C6       0.75919    0.55724    0.88150   1.00
H2       0.82905    0.46726    0.86930   1.00
C6       0.80825    0.42168    0.90771   1.00
H2       0.81774    0.42240    0.84520   1.00
C6       0.77839    0.57832    0.91571   1.00
H2       0.73892    0.57760    0.86631   1.00
H2       0.74117    0.53274    0.89284   1.00
H2       0.79921    0.44178    0.93150   1.00
H2       0.78820    0.39620    0.90719   1.00
H2       0.83818    0.41102    0.91411   1.00
H2       0.79811    0.55822    0.93179   1.00
H2       0.79549    0.60380    0.90524   1.00
H2       0.75566    0.58898    0.93622   1.00
C4       0.74980    0.75075    0.47933   1.00
C4       0.75020    0.74925    0.52067   1.00
C3       0.71489    0.74520    0.45756   1.00
C3       0.71719    0.73661    0.54244   1.00
C4       0.78500    0.75766    0.45850   1.00
C4       0.78414    0.76086    0.54150   1.00
C2       0.74940    0.74982    0.39648   1.00
C2       0.74939    0.74985    0.60352   1.00
C3       0.71496    0.74441    0.41690   1.00
C3       0.71686    0.73732    0.58310   1.00
C3       0.78396    0.75691    0.41694   1.00
C3       0.78287    0.76099    0.58306   1.00
H1       0.68671    0.74229    0.47112   1.00
H1       0.69133    0.72504    0.52888   1.00
C5       0.82011    0.76569    0.47935   1.00
C5       0.81857    0.77146    0.52065   1.00
H1       0.68796    0.73980    0.40114   1.00
H1       0.69117    0.72782    0.59886   1.00
H1       0.80954    0.76236    0.39947   1.00
H1       0.80775    0.76906    0.60053   1.00
C6       0.85912    0.76654    0.45766   1.00
C6       0.85277    0.79022    0.54234   1.00
H2       0.88282    0.75493    0.47642   1.00
H2       0.85948    0.74620    0.43263   1.00
C6       0.86848    0.80778    0.44276   1.00
H2       0.86750    0.81212    0.52358   1.00
H2       0.84292    0.80802    0.56737   1.00
C6       0.88150    0.75919    0.55724   1.00
H2       0.86930    0.82905    0.46726   1.00
C6       0.90771    0.80825    0.42168   1.00
H2       0.84520    0.81774    0.42240   1.00
C6       0.91571    0.77839    0.57832   1.00
H2       0.86631    0.73892    0.57760   1.00
H2       0.89284    0.74117    0.53274   1.00
H2       0.93150    0.79921    0.44178   1.00
H2       0.90719    0.78820    0.39620   1.00
H2       0.91411    0.83818    0.41102   1.00
H2       0.93179    0.79811    0.55822   1.00
H2       0.90524    0.79549    0.60380   1.00
H2       0.93622    0.75566    0.58898   1.00
C4       0.24980    0.24925    1.02067   1.00
C4       0.25020    0.25075    0.97933   1.00
C3       0.21489    0.25480    1.04244   1.00
C3       0.21719    0.26339    0.95756   1.00
C4       0.28500    0.24234    1.04150   1.00
C4       0.28414    0.23914    0.95850   1.00
C2       0.24940    0.25018    1.10352   1.00
C2       0.24939    0.25015    0.89648   1.00
C3       0.21496    0.25559    1.08310   1.00
C3       0.21686    0.26268    0.91690   1.00
C3       0.28396    0.24309    1.08306   1.00
C3       0.28287    0.23901    0.91694   1.00
H1       0.18671    0.25771    1.02888   1.00
H1       0.19133    0.27496    0.97112   1.00
C5       0.32011    0.23431    1.02065   1.00
C5       0.31857    0.22854    0.97935   1.00
H1       0.18796    0.26020    1.09886   1.00
H1       0.19117    0.27218    0.90114   1.00
H1       0.30954    0.23764    1.10053   1.00
H1       0.30775    0.23094    0.89947   1.00
C6       0.35912    0.23346    1.04234   1.00
C6       0.35277    0.20978    0.95766   1.00
H2       0.38282    0.24507    1.02358   1.00
H2       0.35948    0.25380    1.06737   1.00
C6       0.36848    0.19222    1.05724   1.00
H2       0.36750    0.18788    0.97642   1.00
H2       0.34292    0.19198    0.93263   1.00
C6       0.38150    0.24081    0.94276   1.00
H2       0.36930    0.17095    1.03274   1.00
C6       0.40771    0.19175    1.07832   1.00
H2       0.34520    0.18226    1.07760   1.00
C6       0.41571    0.22161    0.92168   1.00
H2       0.36631    0.26108    0.92240   1.00
H2       0.39284    0.25883    0.96726   1.00
H2       0.43150    0.20079    1.05822   1.00
H2       0.40719    0.21180    1.10380   1.00
H2       0.41411    0.16182    1.08898   1.00
H2       0.43179    0.20189    0.94178   1.00
H2       0.40524    0.20451    0.89620   1.00
H2       0.43622    0.24434    0.91102   1.00
C4       0.24925    0.52067    0.74980   1.00
C4       0.25075    0.47933    0.75020   1.00
C3       0.25480    0.54244    0.71489   1.00
C3       0.26339    0.45756    0.71719   1.00
C4       0.24234    0.54150    0.78500   1.00
C4       0.23914    0.45850    0.78414   1.00
C2       0.25018    0.60352    0.74940   1.00
C2       0.25015    0.39648    0.74939   1.00
C3       0.25559    0.58310    0.71496   1.00
C3       0.26268    0.41690    0.71686   1.00
C3       0.24309    0.58306    0.78396   1.00
C3       0.23901    0.41694    0.78287   1.00
H1       0.25771    0.52888    0.68671   1.00
H1       0.27496    0.47112    0.69133   1.00
C5       0.23431    0.52065    0.82011   1.00
C5       0.22854    0.47935    0.81857   1.00
H1       0.26020    0.59886    0.68796   1.00
H1       0.27218    0.40114    0.69117   1.00
H1       0.23764    0.60053    0.80954   1.00
H1       0.23094    0.39947    0.80775   1.00
C6       0.23346    0.54234    0.85912   1.00
C6       0.20978    0.45766    0.85277   1.00
H2       0.24507    0.52358    0.88282   1.00
H2       0.25380    0.56737    0.85948   1.00
C6       0.19222    0.55724    0.86848   1.00
H2       0.18788    0.47642    0.86750   1.00
H2       0.19198    0.43263    0.84292   1.00
C6       0.24081    0.44276    0.88150   1.00
H2       0.17095    0.53274    0.86930   1.00
C6       0.19175    0.57832    0.90771   1.00
H2       0.18226    0.57760    0.84520   1.00
C6       0.22161    0.42168    0.91571   1.00
H2       0.26108    0.42240    0.86631   1.00
H2       0.25883    0.46726    0.89284   1.00
H2       0.20079    0.55822    0.93150   1.00
H2       0.21180    0.60380    0.90719   1.00
H2       0.16182    0.58898    0.91411   1.00
H2       0.20189    0.44178    0.93179   1.00
H2       0.20451    0.39620    0.90524   1.00
H2       0.24434    0.41102    0.93622   1.00
C4       -0.02067   0.24980    0.75075   1.00
C4       0.02067    0.25020    0.74925   1.00
C3       -0.04244   0.21489    0.74520   1.00
C3       0.04244    0.21719    0.73661   1.00
C4       -0.04150   0.28500    0.75766   1.00
C4       0.04150    0.28414    0.76086   1.00
C2       -0.10352   0.24940    0.74982   1.00
C2       0.10352    0.24939    0.74985   1.00
C3       -0.08310   0.21496    0.74441   1.00
C3       0.08310    0.21686    0.73732   1.00
C3       -0.08306   0.28396    0.75691   1.00
C3       0.08306    0.28287    0.76099   1.00
H1       -0.02888   0.18671    0.74229   1.00
H1       0.02888    0.19133    0.72504   1.00
C5       -0.02065   0.32011    0.76569   1.00
C5       0.02065    0.31857    0.77146   1.00
H1       -0.09886   0.18796    0.73980   1.00
H1       0.09886    0.19117    0.72782   1.00
H1       -0.10053   0.30954    0.76236   1.00
H1       0.10053    0.30775    0.76906   1.00
C6       -0.04234   0.35912    0.76654   1.00
C6       0.04234    0.35277    0.79022   1.00
H2       -0.02358   0.38282    0.75493   1.00
H2       -0.06737   0.35948    0.74620   1.00
C6       -0.05724   0.36848    0.80778   1.00
H2       0.02358    0.36750    0.81212   1.00
H2       0.06737    0.34292    0.80802   1.00
C6       0.05724    0.38150    0.75919   1.00
H2       -0.03274   0.36930    0.82905   1.00
C6       -0.07832   0.40771    0.80825   1.00
H2       -0.07760   0.34520    0.81774   1.00
C6       0.07832    0.41571    0.77839   1.00
H2       0.07760    0.36631    0.73892   1.00
H2       0.03274    0.39284    0.74117   1.00
H2       -0.05822   0.43150    0.79921   1.00
H2       -0.10380   0.40719    0.78820   1.00
H2       -0.08898   0.41411    0.83818   1.00
H2       0.05822    0.43179    0.79811   1.00
H2       0.10380    0.40524    0.79549   1.00
H2       0.08898    0.43622    0.75566   1.00
C4       0.52067    0.24980    0.74925   1.00
C4       0.47933    0.25020    0.75075   1.00
C3       0.54244    0.21489    0.75480   1.00
C3       0.45756    0.21719    0.76339   1.00
C4       0.54150    0.28500    0.74234   1.00
C4       0.45850    0.28414    0.73914   1.00
C2       0.60352    0.24940    0.75018   1.00
C2       0.39648    0.24939    0.75015   1.00
C3       0.58310    0.21496    0.75559   1.00
C3       0.41690    0.21686    0.76268   1.00
C3       0.58306    0.28396    0.74309   1.00
C3       0.41694    0.28287    0.73901   1.00
H1       0.52888    0.18671    0.75771   1.00
H1       0.47112    0.19133    0.77496   1.00
C5       0.52065    0.32011    0.73431   1.00
C5       0.47935    0.31857    0.72854   1.00
H1       0.59886    0.18796    0.76020   1.00
H1       0.40114    0.19117    0.77218   1.00
H1       0.60053    0.30954    0.73764   1.00
H1       0.39947    0.30775    0.73094   1.00
C6       0.54234    0.35912    0.73346   1.00
C6       0.45766    0.35277    0.70978   1.00
H2       0.52358    0.38282    0.74507   1.00
H2       0.56737    0.35948    0.75380   1.00
C6       0.55724    0.36848    0.69222   1.00
H2       0.47642    0.36750    0.68788   1.00
H2       0.43263    0.34292    0.69198   1.00
C6       0.44276    0.38150    0.74081   1.00
H2       0.53274    0.36930    0.67095   1.00
C6       0.57832    0.40771    0.69175   1.00
H2       0.57760    0.34520    0.68226   1.00
C6       0.42168    0.41571    0.72161   1.00
H2       0.42240    0.36631    0.76108   1.00
H2       0.46726    0.39284    0.75883   1.00
H2       0.55822    0.43150    0.70079   1.00
H2       0.60380    0.40719    0.71180   1.00
H2       0.58898    0.41411    0.66182   1.00
H2       0.44178    0.43179    0.70189   1.00
H2       0.39620    0.40524    0.70451   1.00
H2       0.41102    0.43622    0.74434   1.00
C4       0.25075    -0.02067   0.74980   1.00
C4       0.24925    0.02067    0.75020   1.00
C3       0.24520    -0.04244   0.71489   1.00
C3       0.23661    0.04244    0.71719   1.00
C4       0.25766    -0.04150   0.78500   1.00
C4       0.26086    0.04150    0.78414   1.00
C2       0.24982    -0.10352   0.74940   1.00
C2       0.24985    0.10352    0.74939   1.00
C3       0.24441    -0.08310   0.71496   1.00
C3       0.23732    0.08310    0.71686   1.00
C3       0.25691    -0.08306   0.78396   1.00
C3       0.26099    0.08306    0.78287   1.00
H1       0.24229    -0.02888   0.68671   1.00
H1       0.22504    0.02888    0.69133   1.00
C5       0.26569    -0.02065   0.82011   1.00
C5       0.27146    0.02065    0.81857   1.00
H1       0.23980    -0.09886   0.68796   1.00
H1       0.22782    0.09886    0.69117   1.00
H1       0.26236    -0.10053   0.80954   1.00
H1       0.26906    0.10053    0.80775   1.00
C6       0.26654    -0.04234   0.85912   1.00
C6       0.29022    0.04234    0.85277   1.00
H2       0.25493    -0.02358   0.88282   1.00
H2       0.24620    -0.06737   0.85948   1.00
C6       0.30778    -0.05724   0.86848   1.00
H2       0.31212    0.02358    0.86750   1.00
H2       0.30802    0.06737    0.84292   1.00
C6       0.25919    0.05724    0.88150   1.00
H2       0.32905    -0.03274   0.86930   1.00
C6       0.30825    -0.07832   0.90771   1.00
H2       0.31774    -0.07760   0.84520   1.00
C6       0.27839    0.07832    0.91571   1.00
H2       0.23892    0.07760    0.86631   1.00
H2       0.24117    0.03274    0.89284   1.00
H2       0.29921    -0.05822   0.93150   1.00
H2       0.28820    -0.10380   0.90719   1.00
H2       0.33818    -0.08898   0.91411   1.00
H2       0.29811    0.05822    0.93179   1.00
H2       0.29549    0.10380    0.90524   1.00
H2       0.25566    0.08898    0.93622   1.00
C4       0.24980    0.25075    0.47933   1.00
C4       0.25020    0.24925    0.52067   1.00
C3       0.21489    0.24520    0.45756   1.00
C3       0.21719    0.23661    0.54244   1.00
C4       0.28500    0.25766    0.45850   1.00
C4       0.28414    0.26086    0.54150   1.00
C2       0.24940    0.24982    0.39648   1.00
C2       0.24939    0.24985    0.60352   1.00
C3       0.21496    0.24441    0.41690   1.00
C3       0.21686    0.23732    0.58310   1.00
C3       0.28396    0.25691    0.41694   1.00
C3       0.28287    0.26099    0.58306   1.00
H1       0.18671    0.24229    0.47112   1.00
H1       0.19133    0.22504    0.52888   1.00
C5       0.32011    0.26569    0.47935   1.00
C5       0.31857    0.27146    0.52065   1.00
H1       0.18796    0.23980    0.40114   1.00
H1       0.19117    0.22782    0.59886   1.00
H1       0.30954    0.26236    0.39947   1.00
H1       0.30775    0.26906    0.60053   1.00
C6       0.35912    0.26654    0.45766   1.00
C6       0.35277    0.29022    0.54234   1.00
H2       0.38282    0.25493    0.47642   1.00
H2       0.35948    0.24620    0.43263   1.00
C6       0.36848    0.30778    0.44276   1.00
H2       0.36750    0.31212    0.52358   1.00
H2       0.34292    0.30802    0.56737   1.00
C6       0.38150    0.25919    0.55724   1.00
H2       0.36930    0.32905    0.46726   1.00
C6       0.40771    0.30825    0.42168   1.00
H2       0.34520    0.31774    0.42240   1.00
C6       0.41571    0.27839    0.57832   1.00
H2       0.36631    0.23892    0.57760   1.00
H2       0.39284    0.24117    0.53274   1.00
H2       0.43150    0.29921    0.44178   1.00
H2       0.40719    0.28820    0.39620   1.00
H2       0.41411    0.33818    0.41102   1.00
H2       0.43179    0.29811    0.55822   1.00
H2       0.40524    0.29549    0.60380   1.00
H2       0.43622    0.25566    0.58898   1.00
C4       0.24980    0.74925    0.52067   1.00
C4       0.25020    0.75075    0.47933   1.00
C3       0.21489    0.75480    0.54244   1.00
C3       0.21719    0.76339    0.45756   1.00
C4       0.28500    0.74234    0.54150   1.00
C4       0.28414    0.73914    0.45850   1.00
C2       0.24940    0.75018    0.60352   1.00
C2       0.24939    0.75015    0.39648   1.00
C3       0.21496    0.75559    0.58310   1.00
C3       0.21686    0.76268    0.41690   1.00
C3       0.28396    0.74309    0.58306   1.00
C3       0.28287    0.73901    0.41694   1.00
H1       0.18671    0.75771    0.52888   1.00
H1       0.19133    0.77496    0.47112   1.00
C5       0.32011    0.73431    0.52065   1.00
C5       0.31857    0.72854    0.47935   1.00
H1       0.18796    0.76020    0.59886   1.00
H1       0.19117    0.77218    0.40114   1.00
H1       0.30954    0.73764    0.60053   1.00
H1       0.30775    0.73094    0.39947   1.00
C6       0.35912    0.73346    0.54234   1.00
C6       0.35277    0.70978    0.45766   1.00
H2       0.38282    0.74507    0.52358   1.00
H2       0.35948    0.75380    0.56737   1.00
C6       0.36848    0.69222    0.55724   1.00
H2       0.36750    0.68788    0.47642   1.00
H2       0.34292    0.69198    0.43263   1.00
C6       0.38150    0.74081    0.44276   1.00
H2       0.36930    0.67095    0.53274   1.00
C6       0.40771    0.69175    0.57832   1.00
H2       0.34520    0.68226    0.57760   1.00
C6       0.41571    0.72161    0.42168   1.00
H2       0.36631    0.76108    0.42240   1.00
H2       0.39284    0.75883    0.46726   1.00
H2       0.43150    0.70079    0.55822   1.00
H2       0.40719    0.71180    0.60380   1.00
H2       0.41411    0.66182    0.58898   1.00
H2       0.43179    0.70189    0.44178   1.00
H2       0.40524    0.70451    0.39620   1.00
H2       0.43622    0.74434    0.41102   1.00
C4       0.24925    1.02067    0.24980   1.00
C4       0.25075    0.97933    0.25020   1.00
C3       0.25480    1.04244    0.21489   1.00
C3       0.26339    0.95756    0.21719   1.00
C4       0.24234    1.04150    0.28500   1.00
C4       0.23914    0.95850    0.28414   1.00
C2       0.25018    1.10352    0.24940   1.00
C2       0.25015    0.89648    0.24939   1.00
C3       0.25559    1.08310    0.21496   1.00
C3       0.26268    0.91690    0.21686   1.00
C3       0.24309    1.08306    0.28396   1.00
C3       0.23901    0.91694    0.28287   1.00
H1       0.25771    1.02888    0.18671   1.00
H1       0.27496    0.97112    0.19133   1.00
C5       0.23431    1.02065    0.32011   1.00
C5       0.22854    0.97935    0.31857   1.00
H1       0.26020    1.09886    0.18796   1.00
H1       0.27218    0.90114    0.19117   1.00
H1       0.23764    1.10053    0.30954   1.00
H1       0.23094    0.89947    0.30775   1.00
C6       0.23346    1.04234    0.35912   1.00
C6       0.20978    0.95766    0.35277   1.00
H2       0.24507    1.02358    0.38282   1.00
H2       0.25380    1.06737    0.35948   1.00
C6       0.19222    1.05724    0.36848   1.00
H2       0.18788    0.97642    0.36750   1.00
H2       0.19198    0.93263    0.34292   1.00
C6       0.24081    0.94276    0.38150   1.00
H2       0.17095    1.03274    0.36930   1.00
C6       0.19175    1.07832    0.40771   1.00
H2       0.18226    1.07760    0.34520   1.00
C6       0.22161    0.92168    0.41571   1.00
H2       0.26108    0.92240    0.36631   1.00
H2       0.25883    0.96726    0.39284   1.00
H2       0.20079    1.05822    0.43150   1.00
H2       0.21180    1.10380    0.40719   1.00
H2       0.16182    1.08898    0.41411   1.00
H2       0.20189    0.94178    0.43179   1.00
H2       0.20451    0.89620    0.40524   1.00
H2       0.24434    0.91102    0.43622   1.00
C4       -0.02067   0.74980    0.25075   1.00
C4       0.02067    0.75020    0.24925   1.00
C3       -0.04244   0.71489    0.24520   1.00
C3       0.04244    0.71719    0.23661   1.00
C4       -0.04150   0.78500    0.25766   1.00
C4       0.04150    0.78414    0.26086   1.00
C2       -0.10352   0.74940    0.24982   1.00
C2       0.10352    0.74939    0.24985   1.00
C3       -0.08310   0.71496    0.24441   1.00
C3       0.08310    0.71686    0.23732   1.00
C3       -0.08306   0.78396    0.25691   1.00
C3       0.08306    0.78287    0.26099   1.00
H1       -0.02888   0.68671    0.24229   1.00
H1       0.02888    0.69133    0.22504   1.00
C5       -0.02065   0.82011    0.26569   1.00
C5       0.02065    0.81857    0.27146   1.00
H1       -0.09886   0.68796    0.23980   1.00
H1       0.09886    0.69117    0.22782   1.00
H1       -0.10053   0.80954    0.26236   1.00
H1       0.10053    0.80775    0.26906   1.00
C6       -0.04234   0.85912    0.26654   1.00
C6       0.04234    0.85277    0.29022   1.00
H2       -0.02358   0.88282    0.25493   1.00
H2       -0.06737   0.85948    0.24620   1.00
C6       -0.05724   0.86848    0.30778   1.00
H2       0.02358    0.86750    0.31212   1.00
H2       0.06737    0.84292    0.30802   1.00
C6       0.05724    0.88150    0.25919   1.00
H2       -0.03274   0.86930    0.32905   1.00
C6       -0.07832   0.90771    0.30825   1.00
H2       -0.07760   0.84520    0.31774   1.00
C6       0.07832    0.91571    0.27839   1.00
H2       0.07760    0.86631    0.23892   1.00
H2       0.03274    0.89284    0.24117   1.00
H2       -0.05822   0.93150    0.29921   1.00
H2       -0.10380   0.90719    0.28820   1.00
H2       -0.08898   0.91411    0.33818   1.00
H2       0.05822    0.93179    0.29811   1.00
H2       0.10380    0.90524    0.29549   1.00
H2       0.08898    0.93622    0.25566   1.00
C4       0.52067    0.74980    0.24925   1.00
C4       0.47933    0.75020    0.25075   1.00
C3       0.54244    0.71489    0.25480   1.00
C3       0.45756    0.71719    0.26339   1.00
C4       0.54150    0.78500    0.24234   1.00
C4       0.45850    0.78414    0.23914   1.00
C2       0.60352    0.74940    0.25018   1.00
C2       0.39648    0.74939    0.25015   1.00
C3       0.58310    0.71496    0.25559   1.00
C3       0.41690    0.71686    0.26268   1.00
C3       0.58306    0.78396    0.24309   1.00
C3       0.41694    0.78287    0.23901   1.00
H1       0.52888    0.68671    0.25771   1.00
H1       0.47112    0.69133    0.27496   1.00
C5       0.52065    0.82011    0.23431   1.00
C5       0.47935    0.81857    0.22854   1.00
H1       0.59886    0.68796    0.26020   1.00
H1       0.40114    0.69117    0.27218   1.00
H1       0.60053    0.80954    0.23764   1.00
H1       0.39947    0.80775    0.23094   1.00
C6       0.54234    0.85912    0.23346   1.00
C6       0.45766    0.85277    0.20978   1.00
H2       0.52358    0.88282    0.24507   1.00
H2       0.56737    0.85948    0.25380   1.00
C6       0.55724    0.86848    0.19222   1.00
H2       0.47642    0.86750    0.18788   1.00
H2       0.43263    0.84292    0.19198   1.00
C6       0.44276    0.88150    0.24081   1.00
H2       0.53274    0.86930    0.17095   1.00
C6       0.57832    0.90771    0.19175   1.00
H2       0.57760    0.84520    0.18226   1.00
C6       0.42168    0.91571    0.22161   1.00
H2       0.42240    0.86631    0.26108   1.00
H2       0.46726    0.89284    0.25883   1.00
H2       0.55822    0.93150    0.20079   1.00
H2       0.60380    0.90719    0.21180   1.00
H2       0.58898    0.91411    0.16182   1.00
H2       0.44178    0.93179    0.20189   1.00
H2       0.39620    0.90524    0.20451   1.00
H2       0.41102    0.93622    0.24434   1.00
C4       0.25075    0.47933    0.24980   1.00
C4       0.24925    0.52067    0.25020   1.00
C3       0.24520    0.45756    0.21489   1.00
C3       0.23661    0.54244    0.21719   1.00
C4       0.25766    0.45850    0.28500   1.00
C4       0.26086    0.54150    0.28414   1.00
C2       0.24982    0.39648    0.24940   1.00
C2       0.24985    0.60352    0.24939   1.00
C3       0.24441    0.41690    0.21496   1.00
C3       0.23732    0.58310    0.21686   1.00
C3       0.25691    0.41694    0.28396   1.00
C3       0.26099    0.58306    0.28287   1.00
H1       0.24229    0.47112    0.18671   1.00
H1       0.22504    0.52888    0.19133   1.00
C5       0.26569    0.47935    0.32011   1.00
C5       0.27146    0.52065    0.31857   1.00
H1       0.23980    0.40114    0.18796   1.00
H1       0.22782    0.59886    0.19117   1.00
H1       0.26236    0.39947    0.30954   1.00
H1       0.26906    0.60053    0.30775   1.00
C6       0.26654    0.45766    0.35912   1.00
C6       0.29022    0.54234    0.35277   1.00
H2       0.25493    0.47642    0.38282   1.00
H2       0.24620    0.43263    0.35948   1.00
C6       0.30778    0.44276    0.36848   1.00
H2       0.31212    0.52358    0.36750   1.00
H2       0.30802    0.56737    0.34292   1.00
C6       0.25919    0.55724    0.38150   1.00
H2       0.32905    0.46726    0.36930   1.00
C6       0.30825    0.42168    0.40771   1.00
H2       0.31774    0.42240    0.34520   1.00
C6       0.27839    0.57832    0.41571   1.00
H2       0.23892    0.57760    0.36631   1.00
H2       0.24117    0.53274    0.39284   1.00
H2       0.29921    0.44178    0.43150   1.00
H2       0.28820    0.39620    0.40719   1.00
H2       0.33818    0.41102    0.41411   1.00
H2       0.29811    0.55822    0.43179   1.00
H2       0.29549    0.60380    0.40524   1.00
H2       0.25566    0.58898    0.43622   1.00
C4       0.24980    0.75075    -0.02067   1.00
C4       0.25020    0.74925    0.02067   1.00
C3       0.21489    0.74520    -0.04244   1.00
C3       0.21719    0.73661    0.04244   1.00
C4       0.28500    0.75766    -0.04150   1.00
C4       0.28414    0.76086    0.04150   1.00
C2       0.24940    0.74982    -0.10352   1.00
C2       0.24939    0.74985    0.10352   1.00
C3       0.21496    0.74441    -0.08310   1.00
C3       0.21686    0.73732    0.08310   1.00
C3       0.28396    0.75691    -0.08306   1.00
C3       0.28287    0.76099    0.08306   1.00
H1       0.18671    0.74229    -0.02888   1.00
H1       0.19133    0.72504    0.02888   1.00
C5       0.32011    0.76569    -0.02065   1.00
C5       0.31857    0.77146    0.02065   1.00
H1       0.18796    0.73980    -0.09886   1.00
H1       0.19117    0.72782    0.09886   1.00
H1       0.30954    0.76236    -0.10053   1.00
H1       0.30775    0.76906    0.10053   1.00
C6       0.35912    0.76654    -0.04234   1.00
C6       0.35277    0.79022    0.04234   1.00
H2       0.38282    0.75493    -0.02358   1.00
H2       0.35948    0.74620    -0.06737   1.00
C6       0.36848    0.80778    -0.05724   1.00
H2       0.36750    0.81212    0.02358   1.00
H2       0.34292    0.80802    0.06737   1.00
C6       0.38150    0.75919    0.05724   1.00
H2       0.36930    0.82905    -0.03274   1.00
C6       0.40771    0.80825    -0.07832   1.00
H2       0.34520    0.81774    -0.07760   1.00
C6       0.41571    0.77839    0.07832   1.00
H2       0.36631    0.73892    0.07760   1.00
H2       0.39284    0.74117    0.03274   1.00
H2       0.43150    0.79921    -0.05822   1.00
H2       0.40719    0.78820    -0.10380   1.00
H2       0.41411    0.83818    -0.08898   1.00
H2       0.43179    0.79811    0.05822   1.00
H2       0.40524    0.79549    0.10380   1.00
H2       0.43622    0.75566    0.08898   1.00
C4       0.74980    0.24925    0.52067   1.00
C4       0.75020    0.25075    0.47933   1.00
C3       0.71489    0.25480    0.54244   1.00
C3       0.71719    0.26339    0.45756   1.00
C4       0.78500    0.24234    0.54150   1.00
C4       0.78414    0.23914    0.45850   1.00
C2       0.74940    0.25018    0.60352   1.00
C2       0.74939    0.25015    0.39648   1.00
C3       0.71496    0.25559    0.58310   1.00
C3       0.71686    0.26268    0.41690   1.00
C3       0.78396    0.24309    0.58306   1.00
C3       0.78287    0.23901    0.41694   1.00
H1       0.68671    0.25771    0.52888   1.00
H1       0.69133    0.27496    0.47112   1.00
C5       0.82011    0.23431    0.52065   1.00
C5       0.81857    0.22854    0.47935   1.00
H1       0.68796    0.26020    0.59886   1.00
H1       0.69117    0.27218    0.40114   1.00
H1       0.80954    0.23764    0.60053   1.00
H1       0.80775    0.23094    0.39947   1.00
C6       0.85912    0.23346    0.54234   1.00
C6       0.85277    0.20978    0.45766   1.00
H2       0.88282    0.24507    0.52358   1.00
H2       0.85948    0.25380    0.56737   1.00
C6       0.86848    0.19222    0.55724   1.00
H2       0.86750    0.18788    0.47642   1.00
H2       0.84292    0.19198    0.43263   1.00
C6       0.88150    0.24081    0.44276   1.00
H2       0.86930    0.17095    0.53274   1.00
C6       0.90771    0.19175    0.57832   1.00
H2       0.84520    0.18226    0.57760   1.00
C6       0.91571    0.22161    0.42168   1.00
H2       0.86631    0.26108    0.42240   1.00
H2       0.89284    0.25883    0.46726   1.00
H2       0.93150    0.20079    0.55822   1.00
H2       0.90719    0.21180    0.60380   1.00
H2       0.91411    0.16182    0.58898   1.00
H2       0.93179    0.20189    0.44178   1.00
H2       0.90524    0.20451    0.39620   1.00
H2       0.93622    0.24434    0.41102   1.00
C4       0.74925    0.52067    0.24980   1.00
C4       0.75075    0.47933    0.25020   1.00
C3       0.75480    0.54244    0.21489   1.00
C3       0.76339    0.45756    0.21719   1.00
C4       0.74234    0.54150    0.28500   1.00
C4       0.73914    0.45850    0.28414   1.00
C2       0.75018    0.60352    0.24940   1.00
C2       0.75015    0.39648    0.24939   1.00
C3       0.75559    0.58310    0.21496   1.00
C3       0.76268    0.41690    0.21686   1.00
C3       0.74309    0.58306    0.28396   1.00
C3       0.73901    0.41694    0.28287   1.00
H1       0.75771    0.52888    0.18671   1.00
H1       0.77496    0.47112    0.19133   1.00
C5       0.73431    0.52065    0.32011   1.00
C5       0.72854    0.47935    0.31857   1.00
H1       0.76020    0.59886    0.18796   1.00
H1       0.77218    0.40114    0.19117   1.00
H1       0.73764    0.60053    0.30954   1.00
H1       0.73094    0.39947    0.30775   1.00
C6       0.73346    0.54234    0.35912   1.00
C6       0.70978    0.45766    0.35277   1.00
H2       0.74507    0.52358    0.38282   1.00
H2       0.75380    0.56737    0.35948   1.00
C6       0.69222    0.55724    0.36848   1.00
H2       0.68788    0.47642    0.36750   1.00
H2       0.69198    0.43263    0.34292   1.00
C6       0.74081    0.44276    0.38150   1.00
H2       0.67095    0.53274    0.36930   1.00
C6       0.69175    0.57832    0.40771   1.00
H2       0.68226    0.57760    0.34520   1.00
C6       0.72161    0.42168    0.41571   1.00
H2       0.76108    0.42240    0.36631   1.00
H2       0.75883    0.46726    0.39284   1.00
H2       0.70079    0.55822    0.43150   1.00
H2       0.71180    0.60380    0.40719   1.00
H2       0.66182    0.58898    0.41411   1.00
H2       0.70189    0.44178    0.43179   1.00
H2       0.70451    0.39620    0.40524   1.00
H2       0.74434    0.41102    0.43622   1.00
C4       0.47933    0.24980    0.25075   1.00
C4       0.52067    0.25020    0.24925   1.00
C3       0.45756    0.21489    0.24520   1.00
C3       0.54244    0.21719    0.23661   1.00
C4       0.45850    0.28500    0.25766   1.00
C4       0.54150    0.28414    0.26086   1.00
C2       0.39648    0.24940    0.24982   1.00
C2       0.60352    0.24939    0.24985   1.00
C3       0.41690    0.21496    0.24441   1.00
C3       0.58310    0.21686    0.23732   1.00
C3       0.41694    0.28396    0.25691   1.00
C3       0.58306    0.28287    0.26099   1.00
H1       0.47112    0.18671    0.24229   1.00
H1       0.52888    0.19133    0.22504   1.00
C5       0.47935    0.32011    0.26569   1.00
C5       0.52065    0.31857    0.27146   1.00
H1       0.40114    0.18796    0.23980   1.00
H1       0.59886    0.19117    0.22782   1.00
H1       0.39947    0.30954    0.26236   1.00
H1       0.60053    0.30775    0.26906   1.00
C6       0.45766    0.35912    0.26654   1.00
C6       0.54234    0.35277    0.29022   1.00
H2       0.47642    0.38282    0.25493   1.00
H2       0.43263    0.35948    0.24620   1.00
C6       0.44276    0.36848    0.30778   1.00
H2       0.52358    0.36750    0.31212   1.00
H2       0.56737    0.34292    0.30802   1.00
C6       0.55724    0.38150    0.25919   1.00
H2       0.46726    0.36930    0.32905   1.00
C6       0.42168    0.40771    0.30825   1.00
H2       0.42240    0.34520    0.31774   1.00
C6       0.57832    0.41571    0.27839   1.00
H2       0.57760    0.36631    0.23892   1.00
H2       0.53274    0.39284    0.24117   1.00
H2       0.44178    0.43150    0.29921   1.00
H2       0.39620    0.40719    0.28820   1.00
H2       0.41102    0.41411    0.33818   1.00
H2       0.55822    0.43179    0.29811   1.00
H2       0.60380    0.40524    0.29549   1.00
H2       0.58898    0.43622    0.25566   1.00
C4       1.02067    0.24980    0.24925   1.00
C4       0.97933    0.25020    0.25075   1.00
C3       1.04244    0.21489    0.25480   1.00
C3       0.95756    0.21719    0.26339   1.00
C4       1.04150    0.28500    0.24234   1.00
C4       0.95850    0.28414    0.23914   1.00
C2       1.10352    0.24940    0.25018   1.00
C2       0.89648    0.24939    0.25015   1.00
C3       1.08310    0.21496    0.25559   1.00
C3       0.91690    0.21686    0.26268   1.00
C3       1.08306    0.28396    0.24309   1.00
C3       0.91694    0.28287    0.23901   1.00
H1       1.02888    0.18671    0.25771   1.00
H1       0.97112    0.19133    0.27496   1.00
C5       1.02065    0.32011    0.23431   1.00
C5       0.97935    0.31857    0.22854   1.00
H1       1.09886    0.18796    0.26020   1.00
H1       0.90114    0.19117    0.27218   1.00
H1       1.10053    0.30954    0.23764   1.00
H1       0.89947    0.30775    0.23094   1.00
C6       1.04234    0.35912    0.23346   1.00
C6       0.95766    0.35277    0.20978   1.00
H2       1.02358    0.38282    0.24507   1.00
H2       1.06737    0.35948    0.25380   1.00
C6       1.05724    0.36848    0.19222   1.00
H2       0.97642    0.36750    0.18788   1.00
H2       0.93263    0.34292    0.19198   1.00
C6       0.94276    0.38150    0.24081   1.00
H2       1.03274    0.36930    0.17095   1.00
C6       1.07832    0.40771    0.19175   1.00
H2       1.07760    0.34520    0.18226   1.00
C6       0.92168    0.41571    0.22161   1.00
H2       0.92240    0.36631    0.26108   1.00
H2       0.96726    0.39284    0.25883   1.00
H2       1.05822    0.43150    0.20079   1.00
H2       1.10380    0.40719    0.21180   1.00
H2       1.08898    0.41411    0.16182   1.00
H2       0.94178    0.43179    0.20189   1.00
H2       0.89620    0.40524    0.20451   1.00
H2       0.91102    0.43622    0.24434   1.00
C4       0.75075    -0.02067   0.24980   1.00
C4       0.74925    0.02067    0.25020   1.00
C3       0.74520    -0.04244   0.21489   1.00
C3       0.73661    0.04244    0.21719   1.00
C4       0.75766    -0.04150   0.28500   1.00
C4       0.76086    0.04150    0.28414   1.00
C2       0.74982    -0.10352   0.24940   1.00
C2       0.74985    0.10352    0.24939   1.00
C3       0.74441    -0.08310   0.21496   1.00
C3       0.73732    0.08310    0.21686   1.00
C3       0.75691    -0.08306   0.28396   1.00
C3       0.76099    0.08306    0.28287   1.00
H1       0.74229    -0.02888   0.18671   1.00
H1       0.72504    0.02888    0.19133   1.00
C5       0.76569    -0.02065   0.32011   1.00
C5       0.77146    0.02065    0.31857   1.00
H1       0.73980    -0.09886   0.18796   1.00
H1       0.72782    0.09886    0.19117   1.00
H1       0.76236    -0.10053   0.30954   1.00
H1       0.76906    0.10053    0.30775   1.00
C6       0.76654    -0.04234   0.35912   1.00
C6       0.79022    0.04234    0.35277   1.00
H2       0.75493    -0.02358   0.38282   1.00
H2       0.74620    -0.06737   0.35948   1.00
C6       0.80778    -0.05724   0.36848   1.00
H2       0.81212    0.02358    0.36750   1.00
H2       0.80802    0.06737    0.34292   1.00
C6       0.75919    0.05724    0.38150   1.00
H2       0.82905    -0.03274   0.36930   1.00
C6       0.80825    -0.07832   0.40771   1.00
H2       0.81774    -0.07760   0.34520   1.00
C6       0.77839    0.07832    0.41571   1.00
H2       0.73892    0.07760    0.36631   1.00
H2       0.74117    0.03274    0.39284   1.00
H2       0.79921    -0.05822   0.43150   1.00
H2       0.78820    -0.10380   0.40719   1.00
H2       0.83818    -0.08898   0.41411   1.00
H2       0.79811    0.05822    0.43179   1.00
H2       0.79549    0.10380    0.40524   1.00
H2       0.75566    0.08898    0.43622   1.00
C4       0.74980    0.25075    -0.02067   1.00
C4       0.75020    0.24925    0.02067   1.00
C3       0.71489    0.24520    -0.04244   1.00
C3       0.71719    0.23661    0.04244   1.00
C4       0.78500    0.25766    -0.04150   1.00
C4       0.78414    0.26086    0.04150   1.00
C2       0.74940    0.24982    -0.10352   1.00
C2       0.74939    0.24985    0.10352   1.00
C3       0.71496    0.24441    -0.08310   1.00
C3       0.71686    0.23732    0.08310   1.00
C3       0.78396    0.25691    -0.08306   1.00
C3       0.78287    0.26099    0.08306   1.00
H1       0.68671    0.24229    -0.02888   1.00
H1       0.69133    0.22504    0.02888   1.00
C5       0.82011    0.26569    -0.02065   1.00
C5       0.81857    0.27146    0.02065   1.00
H1       0.68796    0.23980    -0.09886   1.00
H1       0.69117    0.22782    0.09886   1.00
H1       0.80954    0.26236    -0.10053   1.00
H1       0.80775    0.26906    0.10053   1.00
C6       0.85912    0.26654    -0.04234   1.00
C6       0.85277    0.29022    0.04234   1.00
H2       0.88282    0.25493    -0.02358   1.00
H2       0.85948    0.24620    -0.06737   1.00
C6       0.86848    0.30778    -0.05724   1.00
H2       0.86750    0.31212    0.02358   1.00
H2       0.84292    0.30802    0.06737   1.00
C6       0.88150    0.25919    0.05724   1.00
H2       0.86930    0.32905    -0.03274   1.00
C6       0.90771    0.30825    -0.07832   1.00
H2       0.84520    0.31774    -0.07760   1.00
C6       0.91571    0.27839    0.07832   1.00
H2       0.86631    0.23892    0.07760   1.00
H2       0.89284    0.24117    0.03274   1.00
H2       0.93150    0.29921    -0.05822   1.00
H2       0.90719    0.28820    -0.10380   1.00
H2       0.91411    0.33818    -0.08898   1.00
H2       0.93179    0.29811    0.05822   1.00
H2       0.90524    0.29549    0.10380   1.00
H2       0.93622    0.25566    0.08898   1.00
C4       0.99980    0.99925    1.27067   1.00
C4       1.00020    1.00075    1.22933   1.00
C3       0.96489    1.00480    1.29244   1.00
C3       0.96719    1.01339    1.20756   1.00
C4       1.03500    0.99234    1.29150   1.00
C4       1.03414    0.98914    1.20850   1.00
C2       0.99940    1.00018    1.35352   1.00
C2       0.99939    1.00015    1.14648   1.00
C3       0.96496    1.00559    1.33310   1.00
C3       0.96686    1.01268    1.16690   1.00
C3       1.03396    0.99309    1.33306   1.00
C3       1.03287    0.98901    1.16694   1.00
H1       0.93671    1.00771    1.27888   1.00
H1       0.94133    1.02496    1.22112   1.00
C5       1.07011    0.98431    1.27065   1.00
C5       1.06857    0.97854    1.22935   1.00
H1       0.93796    1.01020    1.34886   1.00
H1       0.94117    1.02218    1.15114   1.00
H1       1.05954    0.98764    1.35053   1.00
H1       1.05775    0.98094    1.14947   1.00
C6       1.10912    0.98346    1.29234   1.00
C6       1.10277    0.95978    1.20766   1.00
H2       1.13282    0.99507    1.27358   1.00
H2       1.10948    1.00380    1.31737   1.00
C6       1.11848    0.94222    1.30724   1.00
H2       1.11750    0.93788    1.22642   1.00
H2       1.09292    0.94198    1.18263   1.00
C6       1.13150    0.99081    1.19276   1.00
H2       1.11930    0.92095    1.28274   1.00
C6       1.15771    0.94175    1.32832   1.00
H2       1.09520    0.93226    1.32760   1.00
C6       1.16571    0.97161    1.17168   1.00
H2       1.11631    1.01108    1.17240   1.00
H2       1.14284    1.00883    1.21726   1.00
H2       1.18150    0.95079    1.30822   1.00
H2       1.15719    0.96180    1.35380   1.00
H2       1.16411    0.91182    1.33898   1.00
H2       1.18179    0.95189    1.19178   1.00
H2       1.15524    0.95451    1.14620   1.00
H2       1.18622    0.99434    1.16102   1.00
C4       0.99925    1.27067    0.99980   1.00
C4       1.00075    1.22933    1.00020   1.00
C3       1.00480    1.29244    0.96489   1.00
C3       1.01339    1.20756    0.96719   1.00
C4       0.99234    1.29150    1.03500   1.00
C4       0.98914    1.20850    1.03414   1.00
C2       1.00018    1.35352    0.99940   1.00
C2       1.00015    1.14648    0.99939   1.00
C3       1.00559    1.33310    0.96496   1.00
C3       1.01268    1.16690    0.96686   1.00
C3       0.99309    1.33306    1.03396   1.00
C3       0.98901    1.16694    1.03287   1.00
H1       1.00771    1.27888    0.93671   1.00
H1       1.02496    1.22112    0.94133   1.00
C5       0.98431    1.27065    1.07011   1.00
C5       0.97854    1.22935    1.06857   1.00
H1       1.01020    1.34886    0.93796   1.00
H1       1.02218    1.15114    0.94117   1.00
H1       0.98764    1.35053    1.05954   1.00
H1       0.98094    1.14947    1.05775   1.00
C6       0.98346    1.29234    1.10912   1.00
C6       0.95978    1.20766    1.10277   1.00
H2       0.99507    1.27358    1.13282   1.00
H2       1.00380    1.31737    1.10948   1.00
C6       0.94222    1.30724    1.11848   1.00
H2       0.93788    1.22642    1.11750   1.00
H2       0.94198    1.18263    1.09292   1.00
C6       0.99081    1.19276    1.13150   1.00
H2       0.92095    1.28274    1.11930   1.00
C6       0.94175    1.32832    1.15771   1.00
H2       0.93226    1.32760    1.09520   1.00
C6       0.97161    1.17168    1.16571   1.00
H2       1.01108    1.17240    1.11631   1.00
H2       1.00883    1.21726    1.14284   1.00
H2       0.95079    1.30822    1.18150   1.00
H2       0.96180    1.35380    1.15719   1.00
H2       0.91182    1.33898    1.16411   1.00
H2       0.95189    1.19178    1.18179   1.00
H2       0.95451    1.14620    1.15524   1.00
H2       0.99434    1.16102    1.18622   1.00
C4       0.72933    0.99980    1.00075   1.00
C4       0.77067    1.00020    0.99925   1.00
C3       0.70756    0.96489    0.99520   1.00
C3       0.79244    0.96719    0.98661   1.00
C4       0.70850    1.03500    1.00766   1.00
C4       0.79150    1.03414    1.01086   1.00
C2       0.64648    0.99940    0.99982   1.00
C2       0.85352    0.99939    0.99985   1.00
C3       0.66690    0.96496    0.99441   1.00
C3       0.83310    0.96686    0.98732   1.00
C3       0.66694    1.03396    1.00691   1.00
C3       0.83306    1.03287    1.01099   1.00
H1       0.72112    0.93671    0.99229   1.00
H1       0.77888    0.94133    0.97504   1.00
C5       0.72935    1.07011    1.01569   1.00
C5       0.77065    1.06857    1.02146   1.00
H1       0.65114    0.93796    0.98980   1.00
H1       0.84886    0.94117    0.97782   1.00
H1       0.64947    1.05954    1.01236   1.00
H1       0.85053    1.05775    1.01906   1.00
C6       0.70766    1.10912    1.01654   1.00
C6       0.79234    1.10277    1.04022   1.00
H2       0.72642    1.13282    1.00493   1.00
H2       0.68263    1.10948    0.99620   1.00
C6       0.69276    1.11848    1.05778   1.00
H2       0.77358    1.11750    1.06212   1.00
H2       0.81737    1.09292    1.05802   1.00
C6       0.80724    1.13150    1.00919   1.00
H2       0.71726    1.11930    1.07905   1.00
C6       0.67168    1.15771    1.05825   1.00
H2       0.67240    1.09520    1.06774   1.00
C6       0.82832    1.16571    1.02839   1.00
H2       0.82760    1.11631    0.98892   1.00
H2       0.78274    1.14284    0.99117   1.00
H2       0.69178    1.18150    1.04921   1.00
H2       0.64620    1.15719    1.03820   1.00
H2       0.66102    1.16411    1.08818   1.00
H2       0.80822    1.18179    1.04811   1.00
H2       0.85380    1.15524    1.04549   1.00
H2       0.83898    1.18622    1.00566   1.00
C4       1.27067    0.99980    0.99925   1.00
C4       1.22933    1.00020    1.00075   1.00
C3       1.29244    0.96489    1.00480   1.00
C3       1.20756    0.96719    1.01339   1.00
C4       1.29150    1.03500    0.99234   1.00
C4       1.20850    1.03414    0.98914   1.00
C2       1.35352    0.99940    1.00018   1.00
C2       1.14648    0.99939    1.00015   1.00
C3       1.33310    0.96496    1.00559   1.00
C3       1.16690    0.96686    1.01268   1.00
C3       1.33306    1.03396    0.99309   1.00
C3       1.16694    1.03287    0.98901   1.00
H1       1.27888    0.93671    1.00771   1.00
H1       1.22112    0.94133    1.02496   1.00
C5       1.27065    1.07011    0.98431   1.00
C5       1.22935    1.06857    0.97854   1.00
H1       1.34886    0.93796    1.01020   1.00
H1       1.15114    0.94117    1.02218   1.00
H1       1.35053    1.05954    0.98764   1.00
H1       1.14947    1.05775    0.98094   1.00
C6       1.29234    1.10912    0.98346   1.00
C6       1.20766    1.10277    0.95978   1.00
H2       1.27358    1.13282    0.99507   1.00
H2       1.31737    1.10948    1.00380   1.00
C6       1.30724    1.11848    0.94222   1.00
H2       1.22642    1.11750    0.93788   1.00
H2       1.18263    1.09292    0.94198   1.00
C6       1.19276    1.13150    0.99081   1.00
H2       1.28274    1.11930    0.92095   1.00
C6       1.32832    1.15771    0.94175   1.00
H2       1.32760    1.09520    0.93226   1.00
C6       1.17168    1.16571    0.97161   1.00
H2       1.17240    1.11631    1.01108   1.00
H2       1.21726    1.14284    1.00883   1.00
H2       1.30822    1.18150    0.95079   1.00
H2       1.35380    1.15719    0.96180   1.00
H2       1.33898    1.16411    0.91182   1.00
H2       1.19178    1.18179    0.95189   1.00
H2       1.14620    1.15524    0.95451   1.00
H2       1.16102    1.18622    0.99434   1.00
C4       1.00075    0.72933    0.99980   1.00
C4       0.99925    0.77067    1.00020   1.00
C3       0.99520    0.70756    0.96489   1.00
C3       0.98661    0.79244    0.96719   1.00
C4       1.00766    0.70850    1.03500   1.00
C4       1.01086    0.79150    1.03414   1.00
C2       0.99982    0.64648    0.99940   1.00
C2       0.99985    0.85352    0.99939   1.00
C3       0.99441    0.66690    0.96496   1.00
C3       0.98732    0.83310    0.96686   1.00
C3       1.00691    0.66694    1.03396   1.00
C3       1.01099    0.83306    1.03287   1.00
H1       0.99229    0.72112    0.93671   1.00
H1       0.97504    0.77888    0.94133   1.00
C5       1.01569    0.72935    1.07011   1.00
C5       1.02146    0.77065    1.06857   1.00
H1       0.98980    0.65114    0.93796   1.00
H1       0.97782    0.84886    0.94117   1.00
H1       1.01236    0.64947    1.05954   1.00
H1       1.01906    0.85053    1.05775   1.00
C6       1.01654    0.70766    1.10912   1.00
C6       1.04022    0.79234    1.10277   1.00
H2       1.00493    0.72642    1.13282   1.00
H2       0.99620    0.68263    1.10948   1.00
C6       1.05778    0.69276    1.11848   1.00
H2       1.06212    0.77358    1.11750   1.00
H2       1.05802    0.81737    1.09292   1.00
C6       1.00919    0.80724    1.13150   1.00
H2       1.07905    0.71726    1.11930   1.00
C6       1.05825    0.67168    1.15771   1.00
H2       1.06774    0.67240    1.09520   1.00
C6       1.02839    0.82832    1.16571   1.00
H2       0.98892    0.82760    1.11631   1.00
H2       0.99117    0.78274    1.14284   1.00
H2       1.04921    0.69178    1.18150   1.00
H2       1.03820    0.64620    1.15719   1.00
H2       1.08818    0.66102    1.16411   1.00
H2       1.04811    0.80822    1.18179   1.00
H2       1.04549    0.85380    1.15524   1.00
H2       1.00566    0.83898    1.18622   1.00
C4       0.99980    1.00075    0.72933   1.00
C4       1.00020    0.99925    0.77067   1.00
C3       0.96489    0.99520    0.70756   1.00
C3       0.96719    0.98661    0.79244   1.00
C4       1.03500    1.00766    0.70850   1.00
C4       1.03414    1.01086    0.79150   1.00
C2       0.99940    0.99982    0.64648   1.00
C2       0.99939    0.99985    0.85352   1.00
C3       0.96496    0.99441    0.66690   1.00
C3       0.96686    0.98732    0.83310   1.00
C3       1.03396    1.00691    0.66694   1.00
C3       1.03287    1.01099    0.83306   1.00
H1       0.93671    0.99229    0.72112   1.00
H1       0.94133    0.97504    0.77888   1.00
C5       1.07011    1.01569    0.72935   1.00
C5       1.06857    1.02146    0.77065   1.00
H1       0.93796    0.98980    0.65114   1.00
H1       0.94117    0.97782    0.84886   1.00
H1       1.05954    1.01236    0.64947   1.00
H1       1.05775    1.01906    0.85053   1.00
C6       1.10912    1.01654    0.70766   1.00
C6       1.10277    1.04022    0.79234   1.00
H2       1.13282    1.00493    0.72642   1.00
H2       1.10948    0.99620    0.68263   1.00
C6       1.11848    1.05778    0.69276   1.00
H2       1.11750    1.06212    0.77358   1.00
H2       1.09292    1.05802    0.81737   1.00
C6       1.13150    1.00919    0.80724   1.00
H2       1.11930    1.07905    0.71726   1.00
C6       1.15771    1.05825    0.67168   1.00
H2       1.09520    1.06774    0.67240   1.00
C6       1.16571    1.02839    0.82832   1.00
H2       1.11631    0.98892    0.82760   1.00
H2       1.14284    0.99117    0.78274   1.00
H2       1.18150    1.04921    0.69178   1.00
H2       1.15719    1.03820    0.64620   1.00
H2       1.16411    1.08818    0.66102   1.00
H2       1.18179    1.04811    0.80822   1.00
H2       1.15524    1.04549    0.85380   1.00
H2       1.18622    1.00566    0.83898   1.00
C4       0.49980    0.49925    1.27067   1.00
C4       0.50020    0.50075    1.22933   1.00
C3       0.46489    0.50480    1.29244   1.00
C3       0.46719    0.51339    1.20756   1.00
C4       0.53500    0.49234    1.29150   1.00
C4       0.53414    0.48914    1.20850   1.00
C2       0.49940    0.50018    1.35352   1.00
C2       0.49939    0.50015    1.14648   1.00
C3       0.46496    0.50559    1.33310   1.00
C3       0.46686    0.51268    1.16690   1.00
C3       0.53396    0.49309    1.33306   1.00
C3       0.53287    0.48901    1.16694   1.00
H1       0.43671    0.50771    1.27888   1.00
H1       0.44133    0.52496    1.22112   1.00
C5       0.57011    0.48431    1.27065   1.00
C5       0.56857    0.47854    1.22935   1.00
H1       0.43796    0.51020    1.34886   1.00
H1       0.44117    0.52218    1.15114   1.00
H1       0.55954    0.48764    1.35053   1.00
H1       0.55775    0.48094    1.14947   1.00
C6       0.60912    0.48346    1.29234   1.00
C6       0.60277    0.45978    1.20766   1.00
H2       0.63282    0.49507    1.27358   1.00
H2       0.60948    0.50380    1.31737   1.00
C6       0.61848    0.44222    1.30724   1.00
H2       0.61750    0.43788    1.22642   1.00
H2       0.59292    0.44198    1.18263   1.00
C6       0.63150    0.49081    1.19276   1.00
H2       0.61930    0.42095    1.28274   1.00
C6       0.65771    0.44175    1.32832   1.00
H2       0.59520    0.43226    1.32760   1.00
C6       0.66571    0.47161    1.17168   1.00
H2       0.61631    0.51108    1.17240   1.00
H2       0.64284    0.50883    1.21726   1.00
H2       0.68150    0.45079    1.30822   1.00
H2       0.65719    0.46180    1.35380   1.00
H2       0.66411    0.41182    1.33898   1.00
H2       0.68179    0.45189    1.19178   1.00
H2       0.65524    0.45451    1.14620   1.00
H2       0.68622    0.49434    1.16102   1.00
C4       0.49925    0.77067    0.99980   1.00
C4       0.50075    0.72933    1.00020   1.00
C3       0.50480    0.79244    0.96489   1.00
C3       0.51339    0.70756    0.96719   1.00
C4       0.49234    0.79150    1.03500   1.00
C4       0.48914    0.70850    1.03414   1.00
C2       0.50018    0.85352    0.99940   1.00
C2       0.50015    0.64648    0.99939   1.00
C3       0.50559    0.83310    0.96496   1.00
C3       0.51268    0.66690    0.96686   1.00
C3       0.49309    0.83306    1.03396   1.00
C3       0.48901    0.66694    1.03287   1.00
H1       0.50771    0.77888    0.93671   1.00
H1       0.52496    0.72112    0.94133   1.00
C5       0.48431    0.77065    1.07011   1.00
C5       0.47854    0.72935    1.06857   1.00
H1       0.51020    0.84886    0.93796   1.00
H1       0.52218    0.65114    0.94117   1.00
H1       0.48764    0.85053    1.05954   1.00
H1       0.48094    0.64947    1.05775   1.00
C6       0.48346    0.79234    1.10912   1.00
C6       0.45978    0.70766    1.10277   1.00
H2       0.49507    0.77358    1.13282   1.00
H2       0.50380    0.81737    1.10948   1.00
C6       0.44222    0.80724    1.11848   1.00
H2       0.43788    0.72642    1.11750   1.00
H2       0.44198    0.68263    1.09292   1.00
C6       0.49081    0.69276    1.13150   1.00
H2       0.42095    0.78274    1.11930   1.00
C6       0.44175    0.82832    1.15771   1.00
H2       0.43226    0.82760    1.09520   1.00
C6       0.47161    0.67168    1.16571   1.00
H2       0.51108    0.67240    1.11631   1.00
H2       0.50883    0.71726    1.14284   1.00
H2       0.45079    0.80822    1.18150   1.00
H2       0.46180    0.85380    1.15719   1.00
H2       0.41182    0.83898    1.16411   1.00
H2       0.45189    0.69178    1.18179   1.00
H2       0.45451    0.64620    1.15524   1.00
H2       0.49434    0.66102    1.18622   1.00
C4       0.22933    0.49980    1.00075   1.00
C4       0.27067    0.50020    0.99925   1.00
C3       0.20756    0.46489    0.99520   1.00
C3       0.29244    0.46719    0.98661   1.00
C4       0.20850    0.53500    1.00766   1.00
C4       0.29150    0.53414    1.01086   1.00
C2       0.14648    0.49940    0.99982   1.00
C2       0.35352    0.49939    0.99985   1.00
C3       0.16690    0.46496    0.99441   1.00
C3       0.33310    0.46686    0.98732   1.00
C3       0.16694    0.53396    1.00691   1.00
C3       0.33306    0.53287    1.01099   1.00
H1       0.22112    0.43671    0.99229   1.00
H1       0.27888    0.44133    0.97504   1.00
C5       0.22935    0.57011    1.01569   1.00
C5       0.27065    0.56857    1.02146   1.00
H1       0.15114    0.43796    0.98980   1.00
H1       0.34886    0.44117    0.97782   1.00
H1       0.14947    0.55954    1.01236   1.00
H1       0.35053    0.55775    1.01906   1.00
C6       0.20766    0.60912    1.01654   1.00
C6       0.29234    0.60277    1.04022   1.00
H2       0.22642    0.63282    1.00493   1.00
H2       0.18263    0.60948    0.99620   1.00
C6       0.19276    0.61848    1.05778   1.00
H2       0.27358    0.61750    1.06212   1.00
H2       0.31737    0.59292    1.05802   1.00
C6       0.30724    0.63150    1.00919   1.00
H2       0.21726    0.61930    1.07905   1.00
C6       0.17168    0.65771    1.05825   1.00
H2       0.17240    0.59520    1.06774   1.00
C6       0.32832    0.66571    1.02839   1.00
H2       0.32760    0.61631    0.98892   1.00
H2       0.28274    0.64284    0.99117   1.00
H2       0.19178    0.68150    1.04921   1.00
H2       0.14620    0.65719    1.03820   1.00
H2       0.16102    0.66411    1.08818   1.00
H2       0.30822    0.68179    1.04811   1.00
H2       0.35380    0.65524    1.04549   1.00
H2       0.33898    0.68622    1.00566   1.00
C4       0.77067    0.49980    0.99925   1.00
C4       0.72933    0.50020    1.00075   1.00
C3       0.79244    0.46489    1.00480   1.00
C3       0.70756    0.46719    1.01339   1.00
C4       0.79150    0.53500    0.99234   1.00
C4       0.70850    0.53414    0.98914   1.00
C2       0.85352    0.49940    1.00018   1.00
C2       0.64648    0.49939    1.00015   1.00
C3       0.83310    0.46496    1.00559   1.00
C3       0.66690    0.46686    1.01268   1.00
C3       0.83306    0.53396    0.99309   1.00
C3       0.66694    0.53287    0.98901   1.00
H1       0.77888    0.43671    1.00771   1.00
H1       0.72112    0.44133    1.02496   1.00
C5       0.77065    0.57011    0.98431   1.00
C5       0.72935    0.56857    0.97854   1.00
H1       0.84886    0.43796    1.01020   1.00
H1       0.65114    0.44117    1.02218   1.00
H1       0.85053    0.55954    0.98764   1.00
H1       0.64947    0.55775    0.98094   1.00
C6       0.79234    0.60912    0.98346   1.00
C6       0.70766    0.60277    0.95978   1.00
H2       0.77358    0.63282    0.99507   1.00
H2       0.81737    0.60948    1.00380   1.00
C6       0.80724    0.61848    0.94222   1.00
H2       0.72642    0.61750    0.93788   1.00
H2       0.68263    0.59292    0.94198   1.00
C6       0.69276    0.63150    0.99081   1.00
H2       0.78274    0.61930    0.92095   1.00
C6       0.82832    0.65771    0.94175   1.00
H2       0.82760    0.59520    0.93226   1.00
C6       0.67168    0.66571    0.97161   1.00
H2       0.67240    0.61631    1.01108   1.00
H2       0.71726    0.64284    1.00883   1.00
H2       0.80822    0.68150    0.95079   1.00
H2       0.85380    0.65719    0.96180   1.00
H2       0.83898    0.66411    0.91182   1.00
H2       0.69178    0.68179    0.95189   1.00
H2       0.64620    0.65524    0.95451   1.00
H2       0.66102    0.68622    0.99434   1.00
C4       0.50075    0.22933    0.99980   1.00
C4       0.49925    0.27067    1.00020   1.00
C3       0.49520    0.20756    0.96489   1.00
C3       0.48661    0.29244    0.96719   1.00
C4       0.50766    0.20850    1.03500   1.00
C4       0.51086    0.29150    1.03414   1.00
C2       0.49982    0.14648    0.99940   1.00
C2       0.49985    0.35352    0.99939   1.00
C3       0.49441    0.16690    0.96496   1.00
C3       0.48732    0.33310    0.96686   1.00
C3       0.50691    0.16694    1.03396   1.00
C3       0.51099    0.33306    1.03287   1.00
H1       0.49229    0.22112    0.93671   1.00
H1       0.47504    0.27888    0.94133   1.00
C5       0.51569    0.22935    1.07011   1.00
C5       0.52146    0.27065    1.06857   1.00
H1       0.48980    0.15114    0.93796   1.00
H1       0.47782    0.34886    0.94117   1.00
H1       0.51236    0.14947    1.05954   1.00
H1       0.51906    0.35053    1.05775   1.00
C6       0.51654    0.20766    1.10912   1.00
C6       0.54022    0.29234    1.10277   1.00
H2       0.50493    0.22642    1.13282   1.00
H2       0.49620    0.18263    1.10948   1.00
C6       0.55778    0.19276    1.11848   1.00
H2       0.56212    0.27358    1.11750   1.00
H2       0.55802    0.31737    1.09292   1.00
C6       0.50919    0.30724    1.13150   1.00
H2       0.57905    0.21726    1.11930   1.00
C6       0.55825    0.17168    1.15771   1.00
H2       0.56774    0.17240    1.09520   1.00
C6       0.52839    0.32832    1.16571   1.00
H2       0.48892    0.32760    1.11631   1.00
H2       0.49117    0.28274    1.14284   1.00
H2       0.54921    0.19178    1.18150   1.00
H2       0.53820    0.14620    1.15719   1.00
H2       0.58818    0.16102    1.16411   1.00
H2       0.54811    0.30822    1.18179   1.00
H2       0.54549    0.35380    1.15524   1.00
H2       0.50566    0.33898    1.18622   1.00
C4       0.49980    0.50075    0.72933   1.00
C4       0.50020    0.49925    0.77067   1.00
C3       0.46489    0.49520    0.70756   1.00
C3       0.46719    0.48661    0.79244   1.00
C4       0.53500    0.50766    0.70850   1.00
C4       0.53414    0.51086    0.79150   1.00
C2       0.49940    0.49982    0.64648   1.00
C2       0.49939    0.49985    0.85352   1.00
C3       0.46496    0.49441    0.66690   1.00
C3       0.46686    0.48732    0.83310   1.00
C3       0.53396    0.50691    0.66694   1.00
C3       0.53287    0.51099    0.83306   1.00
H1       0.43671    0.49229    0.72112   1.00
H1       0.44133    0.47504    0.77888   1.00
C5       0.57011    0.51569    0.72935   1.00
C5       0.56857    0.52146    0.77065   1.00
H1       0.43796    0.48980    0.65114   1.00
H1       0.44117    0.47782    0.84886   1.00
H1       0.55954    0.51236    0.64947   1.00
H1       0.55775    0.51906    0.85053   1.00
C6       0.60912    0.51654    0.70766   1.00
C6       0.60277    0.54022    0.79234   1.00
H2       0.63282    0.50493    0.72642   1.00
H2       0.60948    0.49620    0.68263   1.00
C6       0.61848    0.55778    0.69276   1.00
H2       0.61750    0.56212    0.77358   1.00
H2       0.59292    0.55802    0.81737   1.00
C6       0.63150    0.50919    0.80724   1.00
H2       0.61930    0.57905    0.71726   1.00
C6       0.65771    0.55825    0.67168   1.00
H2       0.59520    0.56774    0.67240   1.00
C6       0.66571    0.52839    0.82832   1.00
H2       0.61631    0.48892    0.82760   1.00
H2       0.64284    0.49117    0.78274   1.00
H2       0.68150    0.54921    0.69178   1.00
H2       0.65719    0.53820    0.64620   1.00
H2       0.66411    0.58818    0.66102   1.00
H2       0.68179    0.54811    0.80822   1.00
H2       0.65524    0.54549    0.85380   1.00
H2       0.68622    0.50566    0.83898   1.00
C4       0.49980    0.99925    0.77067   1.00
C4       0.50020    1.00075    0.72933   1.00
C3       0.46489    1.00480    0.79244   1.00
C3       0.46719    1.01339    0.70756   1.00
C4       0.53500    0.99234    0.79150   1.00
C4       0.53414    0.98914    0.70850   1.00
C2       0.49940    1.00018    0.85352   1.00
C2       0.49939    1.00015    0.64648   1.00
C3       0.46496    1.00559    0.83310   1.00
C3       0.46686    1.01268    0.66690   1.00
C3       0.53396    0.99309    0.83306   1.00
C3       0.53287    0.98901    0.66694   1.00
H1       0.43671    1.00771    0.77888   1.00
H1       0.44133    1.02496    0.72112   1.00
C5       0.57011    0.98431    0.77065   1.00
C5       0.56857    0.97854    0.72935   1.00
H1       0.43796    1.01020    0.84886   1.00
H1       0.44117    1.02218    0.65114   1.00
H1       0.55954    0.98764    0.85053   1.00
H1       0.55775    0.98094    0.64947   1.00
C6       0.60912    0.98346    0.79234   1.00
C6       0.60277    0.95978    0.70766   1.00
H2       0.63282    0.99507    0.77358   1.00
H2       0.60948    1.00380    0.81737   1.00
C6       0.61848    0.94222    0.80724   1.00
H2       0.61750    0.93788    0.72642   1.00
H2       0.59292    0.94198    0.68263   1.00
C6       0.63150    0.99081    0.69276   1.00
H2       0.61930    0.92095    0.78274   1.00
C6       0.65771    0.94175    0.82832   1.00
H2       0.59520    0.93226    0.82760   1.00
C6       0.66571    0.97161    0.67168   1.00
H2       0.61631    1.01108    0.67240   1.00
H2       0.64284    1.00883    0.71726   1.00
H2       0.68150    0.95079    0.80822   1.00
H2       0.65719    0.96180    0.85380   1.00
H2       0.66411    0.91182    0.83898   1.00
H2       0.68179    0.95189    0.69178   1.00
H2       0.65524    0.95451    0.64620   1.00
H2       0.68622    0.99434    0.66102   1.00
C4       0.49925    1.27067    0.49980   1.00
C4       0.50075    1.22933    0.50020   1.00
C3       0.50480    1.29244    0.46489   1.00
C3       0.51339    1.20756    0.46719   1.00
C4       0.49234    1.29150    0.53500   1.00
C4       0.48914    1.20850    0.53414   1.00
C2       0.50018    1.35352    0.49940   1.00
C2       0.50015    1.14648    0.49939   1.00
C3       0.50559    1.33310    0.46496   1.00
C3       0.51268    1.16690    0.46686   1.00
C3       0.49309    1.33306    0.53396   1.00
C3       0.48901    1.16694    0.53287   1.00
H1       0.50771    1.27888    0.43671   1.00
H1       0.52496    1.22112    0.44133   1.00
C5       0.48431    1.27065    0.57011   1.00
C5       0.47854    1.22935    0.56857   1.00
H1       0.51020    1.34886    0.43796   1.00
H1       0.52218    1.15114    0.44117   1.00
H1       0.48764    1.35053    0.55954   1.00
H1       0.48094    1.14947    0.55775   1.00
C6       0.48346    1.29234    0.60912   1.00
C6       0.45978    1.20766    0.60277   1.00
H2       0.49507    1.27358    0.63282   1.00
H2       0.50380    1.31737    0.60948   1.00
C6       0.44222    1.30724    0.61848   1.00
H2       0.43788    1.22642    0.61750   1.00
H2       0.44198    1.18263    0.59292   1.00
C6       0.49081    1.19276    0.63150   1.00
H2       0.42095    1.28274    0.61930   1.00
C6       0.44175    1.32832    0.65771   1.00
H2       0.43226    1.32760    0.59520   1.00
C6       0.47161    1.17168    0.66571   1.00
H2       0.51108    1.17240    0.61631   1.00
H2       0.50883    1.21726    0.64284   1.00
H2       0.45079    1.30822    0.68150   1.00
H2       0.46180    1.35380    0.65719   1.00
H2       0.41182    1.33898    0.66411   1.00
H2       0.45189    1.19178    0.68179   1.00
H2       0.45451    1.14620    0.65524   1.00
H2       0.49434    1.16102    0.68622   1.00
C4       0.22933    0.99980    0.50075   1.00
C4       0.27067    1.00020    0.49925   1.00
C3       0.20756    0.96489    0.49520   1.00
C3       0.29244    0.96719    0.48661   1.00
C4       0.20850    1.03500    0.50766   1.00
C4       0.29150    1.03414    0.51086   1.00
C2       0.14648    0.99940    0.49982   1.00
C2       0.35352    0.99939    0.49985   1.00
C3       0.16690    0.96496    0.49441   1.00
C3       0.33310    0.96686    0.48732   1.00
C3       0.16694    1.03396    0.50691   1.00
C3       0.33306    1.03287    0.51099   1.00
H1       0.22112    0.93671    0.49229   1.00
H1       0.27888    0.94133    0.47504   1.00
C5       0.22935    1.07011    0.51569   1.00
C5       0.27065    1.06857    0.52146   1.00
H1       0.15114    0.93796    0.48980   1.00
H1       0.34886    0.94117    0.47782   1.00
H1       0.14947    1.05954    0.51236   1.00
H1       0.35053    1.05775    0.51906   1.00
C6       0.20766    1.10912    0.51654   1.00
C6       0.29234    1.10277    0.54022   1.00
H2       0.22642    1.13282    0.50493   1.00
H2       0.18263    1.10948    0.49620   1.00
C6       0.19276    1.11848    0.55778   1.00
H2       0.27358    1.11750    0.56212   1.00
H2       0.31737    1.09292    0.55802   1.00
C6       0.30724    1.13150    0.50919   1.00
H2       0.21726    1.11930    0.57905   1.00
C6       0.17168    1.15771    0.55825   1.00
H2       0.17240    1.09520    0.56774   1.00
C6       0.32832    1.16571    0.52839   1.00
H2       0.32760    1.11631    0.48892   1.00
H2       0.28274    1.14284    0.49117   1.00
H2       0.19178    1.18150    0.54921   1.00
H2       0.14620    1.15719    0.53820   1.00
H2       0.16102    1.16411    0.58818   1.00
H2       0.30822    1.18179    0.54811   1.00
H2       0.35380    1.15524    0.54549   1.00
H2       0.33898    1.18622    0.50566   1.00
C4       0.77067    0.99980    0.49925   1.00
C4       0.72933    1.00020    0.50075   1.00
C3       0.79244    0.96489    0.50480   1.00
C3       0.70756    0.96719    0.51339   1.00
C4       0.79150    1.03500    0.49234   1.00
C4       0.70850    1.03414    0.48914   1.00
C2       0.85352    0.99940    0.50018   1.00
C2       0.64648    0.99939    0.50015   1.00
C3       0.83310    0.96496    0.50559   1.00
C3       0.66690    0.96686    0.51268   1.00
C3       0.83306    1.03396    0.49309   1.00
C3       0.66694    1.03287    0.48901   1.00
H1       0.77888    0.93671    0.50771   1.00
H1       0.72112    0.94133    0.52496   1.00
C5       0.77065    1.07011    0.48431   1.00
C5       0.72935    1.06857    0.47854   1.00
H1       0.84886    0.93796    0.51020   1.00
H1       0.65114    0.94117    0.52218   1.00
H1       0.85053    1.05954    0.48764   1.00
H1       0.64947    1.05775    0.48094   1.00
C6       0.79234    1.10912    0.48346   1.00
C6       0.70766    1.10277    0.45978   1.00
H2       0.77358    1.13282    0.49507   1.00
H2       0.81737    1.10948    0.50380   1.00
C6       0.80724    1.11848    0.44222   1.00
H2       0.72642    1.11750    0.43788   1.00
H2       0.68263    1.09292    0.44198   1.00
C6       0.69276    1.13150    0.49081   1.00
H2       0.78274    1.11930    0.42095   1.00
C6       0.82832    1.15771    0.44175   1.00
H2       0.82760    1.09520    0.43226   1.00
C6       0.67168    1.16571    0.47161   1.00
H2       0.67240    1.11631    0.51108   1.00
H2       0.71726    1.14284    0.50883   1.00
H2       0.80822    1.18150    0.45079   1.00
H2       0.85380    1.15719    0.46180   1.00
H2       0.83898    1.16411    0.41182   1.00
H2       0.69178    1.18179    0.45189   1.00
H2       0.64620    1.15524    0.45451   1.00
H2       0.66102    1.18622    0.49434   1.00
C4       0.50075    0.72933    0.49980   1.00
C4       0.49925    0.77067    0.50020   1.00
C3       0.49520    0.70756    0.46489   1.00
C3       0.48661    0.79244    0.46719   1.00
C4       0.50766    0.70850    0.53500   1.00
C4       0.51086    0.79150    0.53414   1.00
C2       0.49982    0.64648    0.49940   1.00
C2       0.49985    0.85352    0.49939   1.00
C3       0.49441    0.66690    0.46496   1.00
C3       0.48732    0.83310    0.46686   1.00
C3       0.50691    0.66694    0.53396   1.00
C3       0.51099    0.83306    0.53287   1.00
H1       0.49229    0.72112    0.43671   1.00
H1       0.47504    0.77888    0.44133   1.00
C5       0.51569    0.72935    0.57011   1.00
C5       0.52146    0.77065    0.56857   1.00
H1       0.48980    0.65114    0.43796   1.00
H1       0.47782    0.84886    0.44117   1.00
H1       0.51236    0.64947    0.55954   1.00
H1       0.51906    0.85053    0.55775   1.00
C6       0.51654    0.70766    0.60912   1.00
C6       0.54022    0.79234    0.60277   1.00
H2       0.50493    0.72642    0.63282   1.00
H2       0.49620    0.68263    0.60948   1.00
C6       0.55778    0.69276    0.61848   1.00
H2       0.56212    0.77358    0.61750   1.00
H2       0.55802    0.81737    0.59292   1.00
C6       0.50919    0.80724    0.63150   1.00
H2       0.57905    0.71726    0.61930   1.00
C6       0.55825    0.67168    0.65771   1.00
H2       0.56774    0.67240    0.59520   1.00
C6       0.52839    0.82832    0.66571   1.00
H2       0.48892    0.82760    0.61631   1.00
H2       0.49117    0.78274    0.64284   1.00
H2       0.54921    0.69178    0.68150   1.00
H2       0.53820    0.64620    0.65719   1.00
H2       0.58818    0.66102    0.66411   1.00
H2       0.54811    0.80822    0.68179   1.00
H2       0.54549    0.85380    0.65524   1.00
H2       0.50566    0.83898    0.68622   1.00
C4       0.49980    1.00075    0.22933   1.00
C4       0.50020    0.99925    0.27067   1.00
C3       0.46489    0.99520    0.20756   1.00
C3       0.46719    0.98661    0.29244   1.00
C4       0.53500    1.00766    0.20850   1.00
C4       0.53414    1.01086    0.29150   1.00
C2       0.49940    0.99982    0.14648   1.00
C2       0.49939    0.99985    0.35352   1.00
C3       0.46496    0.99441    0.16690   1.00
C3       0.46686    0.98732    0.33310   1.00
C3       0.53396    1.00691    0.16694   1.00
C3       0.53287    1.01099    0.33306   1.00
H1       0.43671    0.99229    0.22112   1.00
H1       0.44133    0.97504    0.27888   1.00
C5       0.57011    1.01569    0.22935   1.00
C5       0.56857    1.02146    0.27065   1.00
H1       0.43796    0.98980    0.15114   1.00
H1       0.44117    0.97782    0.34886   1.00
H1       0.55954    1.01236    0.14947   1.00
H1       0.55775    1.01906    0.35053   1.00
C6       0.60912    1.01654    0.20766   1.00
C6       0.60277    1.04022    0.29234   1.00
H2       0.63282    1.00493    0.22642   1.00
H2       0.60948    0.99620    0.18263   1.00
C6       0.61848    1.05778    0.19276   1.00
H2       0.61750    1.06212    0.27358   1.00
H2       0.59292    1.05802    0.31737   1.00
C6       0.63150    1.00919    0.30724   1.00
H2       0.61930    1.07905    0.21726   1.00
C6       0.65771    1.05825    0.17168   1.00
H2       0.59520    1.06774    0.17240   1.00
C6       0.66571    1.02839    0.32832   1.00
H2       0.61631    0.98892    0.32760   1.00
H2       0.64284    0.99117    0.28274   1.00
H2       0.68150    1.04921    0.19178   1.00
H2       0.65719    1.03820    0.14620   1.00
H2       0.66411    1.08818    0.16102   1.00
H2       0.68179    1.04811    0.30822   1.00
H2       0.65524    1.04549    0.35380   1.00
H2       0.68622    1.00566    0.33898   1.00
C4       0.99980    0.49925    0.77067   1.00
C4       1.00020    0.50075    0.72933   1.00
C3       0.96489    0.50480    0.79244   1.00
C3       0.96719    0.51339    0.70756   1.00
C4       1.03500    0.49234    0.79150   1.00
C4       1.03414    0.48914    0.70850   1.00
C2       0.99940    0.50018    0.85352   1.00
C2       0.99939    0.50015    0.64648   1.00
C3       0.96496    0.50559    0.83310   1.00
C3       0.96686    0.51268    0.66690   1.00
C3       1.03396    0.49309    0.83306   1.00
C3       1.03287    0.48901    0.66694   1.00
H1       0.93671    0.50771    0.77888   1.00
H1       0.94133    0.52496    0.72112   1.00
C5       1.07011    0.48431    0.77065   1.00
C5       1.06857    0.47854    0.72935   1.00
H1       0.93796    0.51020    0.84886   1.00
H1       0.94117    0.52218    0.65114   1.00
H1       1.05954    0.48764    0.85053   1.00
H1       1.05775    0.48094    0.64947   1.00
C6       1.10912    0.48346    0.79234   1.00
C6       1.10277    0.45978    0.70766   1.00
H2       1.13282    0.49507    0.77358   1.00
H2       1.10948    0.50380    0.81737   1.00
C6       1.11848    0.44222    0.80724   1.00
H2       1.11750    0.43788    0.72642   1.00
H2       1.09292    0.44198    0.68263   1.00
C6       1.13150    0.49081    0.69276   1.00
H2       1.11930    0.42095    0.78274   1.00
C6       1.15771    0.44175    0.82832   1.00
H2       1.09520    0.43226    0.82760   1.00
C6       1.16571    0.47161    0.67168   1.00
H2       1.11631    0.51108    0.67240   1.00
H2       1.14284    0.50883    0.71726   1.00
H2       1.18150    0.45079    0.80822   1.00
H2       1.15719    0.46180    0.85380   1.00
H2       1.16411    0.41182    0.83898   1.00
H2       1.18179    0.45189    0.69178   1.00
H2       1.15524    0.45451    0.64620   1.00
H2       1.18622    0.49434    0.66102   1.00
C4       0.99925    0.77067    0.49980   1.00
C4       1.00075    0.72933    0.50020   1.00
C3       1.00480    0.79244    0.46489   1.00
C3       1.01339    0.70756    0.46719   1.00
C4       0.99234    0.79150    0.53500   1.00
C4       0.98914    0.70850    0.53414   1.00
C2       1.00018    0.85352    0.49940   1.00
C2       1.00015    0.64648    0.49939   1.00
C3       1.00559    0.83310    0.46496   1.00
C3       1.01268    0.66690    0.46686   1.00
C3       0.99309    0.83306    0.53396   1.00
C3       0.98901    0.66694    0.53287   1.00
H1       1.00771    0.77888    0.43671   1.00
H1       1.02496    0.72112    0.44133   1.00
C5       0.98431    0.77065    0.57011   1.00
C5       0.97854    0.72935    0.56857   1.00
H1       1.01020    0.84886    0.43796   1.00
H1       1.02218    0.65114    0.44117   1.00
H1       0.98764    0.85053    0.55954   1.00
H1       0.98094    0.64947    0.55775   1.00
C6       0.98346    0.79234    0.60912   1.00
C6       0.95978    0.70766    0.60277   1.00
H2       0.99507    0.77358    0.63282   1.00
H2       1.00380    0.81737    0.60948   1.00
C6       0.94222    0.80724    0.61848   1.00
H2       0.93788    0.72642    0.61750   1.00
H2       0.94198    0.68263    0.59292   1.00
C6       0.99081    0.69276    0.63150   1.00
H2       0.92095    0.78274    0.61930   1.00
C6       0.94175    0.82832    0.65771   1.00
H2       0.93226    0.82760    0.59520   1.00
C6       0.97161    0.67168    0.66571   1.00
H2       1.01108    0.67240    0.61631   1.00
H2       1.00883    0.71726    0.64284   1.00
H2       0.95079    0.80822    0.68150   1.00
H2       0.96180    0.85380    0.65719   1.00
H2       0.91182    0.83898    0.66411   1.00
H2       0.95189    0.69178    0.68179   1.00
H2       0.95451    0.64620    0.65524   1.00
H2       0.99434    0.66102    0.68622   1.00
C4       0.72933    0.49980    0.50075   1.00
C4       0.77067    0.50020    0.49925   1.00
C3       0.70756    0.46489    0.49520   1.00
C3       0.79244    0.46719    0.48661   1.00
C4       0.70850    0.53500    0.50766   1.00
C4       0.79150    0.53414    0.51086   1.00
C2       0.64648    0.49940    0.49982   1.00
C2       0.85352    0.49939    0.49985   1.00
C3       0.66690    0.46496    0.49441   1.00
C3       0.83310    0.46686    0.48732   1.00
C3       0.66694    0.53396    0.50691   1.00
C3       0.83306    0.53287    0.51099   1.00
H1       0.72112    0.43671    0.49229   1.00
H1       0.77888    0.44133    0.47504   1.00
C5       0.72935    0.57011    0.51569   1.00
C5       0.77065    0.56857    0.52146   1.00
H1       0.65114    0.43796    0.48980   1.00
H1       0.84886    0.44117    0.47782   1.00
H1       0.64947    0.55954    0.51236   1.00
H1       0.85053    0.55775    0.51906   1.00
C6       0.70766    0.60912    0.51654   1.00
C6       0.79234    0.60277    0.54022   1.00
H2       0.72642    0.63282    0.50493   1.00
H2       0.68263    0.60948    0.49620   1.00
C6       0.69276    0.61848    0.55778   1.00
H2       0.77358    0.61750    0.56212   1.00
H2       0.81737    0.59292    0.55802   1.00
C6       0.80724    0.63150    0.50919   1.00
H2       0.71726    0.61930    0.57905   1.00
C6       0.67168    0.65771    0.55825   1.00
H2       0.67240    0.59520    0.56774   1.00
C6       0.82832    0.66571    0.52839   1.00
H2       0.82760    0.61631    0.48892   1.00
H2       0.78274    0.64284    0.49117   1.00
H2       0.69178    0.68150    0.54921   1.00
H2       0.64620    0.65719    0.53820   1.00
H2       0.66102    0.66411    0.58818   1.00
H2       0.80822    0.68179    0.54811   1.00
H2       0.85380    0.65524    0.54549   1.00
H2       0.83898    0.68622    0.50566   1.00
C4       1.27067    0.49980    0.49925   1.00
C4       1.22933    0.50020    0.50075   1.00
C3       1.29244    0.46489    0.50480   1.00
C3       1.20756    0.46719    0.51339   1.00
C4       1.29150    0.53500    0.49234   1.00
C4       1.20850    0.53414    0.48914   1.00
C2       1.35352    0.49940    0.50018   1.00
C2       1.14648    0.49939    0.50015   1.00
C3       1.33310    0.46496    0.50559   1.00
C3       1.16690    0.46686    0.51268   1.00
C3       1.33306    0.53396    0.49309   1.00
C3       1.16694    0.53287    0.48901   1.00
H1       1.27888    0.43671    0.50771   1.00
H1       1.22112    0.44133    0.52496   1.00
C5       1.27065    0.57011    0.48431   1.00
C5       1.22935    0.56857    0.47854   1.00
H1       1.34886    0.43796    0.51020   1.00
H1       1.15114    0.44117    0.52218   1.00
H1       1.35053    0.55954    0.48764   1.00
H1       1.14947    0.55775    0.48094   1.00
C6       1.29234    0.60912    0.48346   1.00
C6       1.20766    0.60277    0.45978   1.00
H2       1.27358    0.63282    0.49507   1.00
H2       1.31737    0.60948    0.50380   1.00
C6       1.30724    0.61848    0.44222   1.00
H2       1.22642    0.61750    0.43788   1.00
H2       1.18263    0.59292    0.44198   1.00
C6       1.19276    0.63150    0.49081   1.00
H2       1.28274    0.61930    0.42095   1.00
C6       1.32832    0.65771    0.44175   1.00
H2       1.32760    0.59520    0.43226   1.00
C6       1.17168    0.66571    0.47161   1.00
H2       1.17240    0.61631    0.51108   1.00
H2       1.21726    0.64284    0.50883   1.00
H2       1.30822    0.68150    0.45079   1.00
H2       1.35380    0.65719    0.46180   1.00
H2       1.33898    0.66411    0.41182   1.00
H2       1.19178    0.68179    0.45189   1.00
H2       1.14620    0.65524    0.45451   1.00
H2       1.16102    0.68622    0.49434   1.00
C4       1.00075    0.22933    0.49980   1.00
C4       0.99925    0.27067    0.50020   1.00
C3       0.99520    0.20756    0.46489   1.00
C3       0.98661    0.29244    0.46719   1.00
C4       1.00766    0.20850    0.53500   1.00
C4       1.01086    0.29150    0.53414   1.00
C2       0.99982    0.14648    0.49940   1.00
C2       0.99985    0.35352    0.49939   1.00
C3       0.99441    0.16690    0.46496   1.00
C3       0.98732    0.33310    0.46686   1.00
C3       1.00691    0.16694    0.53396   1.00
C3       1.01099    0.33306    0.53287   1.00
H1       0.99229    0.22112    0.43671   1.00
H1       0.97504    0.27888    0.44133   1.00
C5       1.01569    0.22935    0.57011   1.00
C5       1.02146    0.27065    0.56857   1.00
H1       0.98980    0.15114    0.43796   1.00
H1       0.97782    0.34886    0.44117   1.00
H1       1.01236    0.14947    0.55954   1.00
H1       1.01906    0.35053    0.55775   1.00
C6       1.01654    0.20766    0.60912   1.00
C6       1.04022    0.29234    0.60277   1.00
H2       1.00493    0.22642    0.63282   1.00
H2       0.99620    0.18263    0.60948   1.00
C6       1.05778    0.19276    0.61848   1.00
H2       1.06212    0.27358    0.61750   1.00
H2       1.05802    0.31737    0.59292   1.00
C6       1.00919    0.30724    0.63150   1.00
H2       1.07905    0.21726    0.61930   1.00
C6       1.05825    0.17168    0.65771   1.00
H2       1.06774    0.17240    0.59520   1.00
C6       1.02839    0.32832    0.66571   1.00
H2       0.98892    0.32760    0.61631   1.00
H2       0.99117    0.28274    0.64284   1.00
H2       1.04921    0.19178    0.68150   1.00
H2       1.03820    0.14620    0.65719   1.00
H2       1.08818    0.16102    0.66411   1.00
H2       1.04811    0.30822    0.68179   1.00
H2       1.04549    0.35380    0.65524   1.00
H2       1.00566    0.33898    0.68622   1.00
C4       0.99980    0.50075    0.22933   1.00
C4       1.00020    0.49925    0.27067   1.00
C3       0.96489    0.49520    0.20756   1.00
C3       0.96719    0.48661    0.29244   1.00
C4       1.03500    0.50766    0.20850   1.00
C4       1.03414    0.51086    0.29150   1.00
C2       0.99940    0.49982    0.14648   1.00
C2       0.99939    0.49985    0.35352   1.00
C3       0.96496    0.49441    0.16690   1.00
C3       0.96686    0.48732    0.33310   1.00
C3       1.03396    0.50691    0.16694   1.00
C3       1.03287    0.51099    0.33306   1.00
H1       0.93671    0.49229    0.22112   1.00
H1       0.94133    0.47504    0.27888   1.00
C5       1.07011    0.51569    0.22935   1.00
C5       1.06857    0.52146    0.27065   1.00
H1       0.93796    0.48980    0.15114   1.00
H1       0.94117    0.47782    0.34886   1.00
H1       1.05954    0.51236    0.14947   1.00
H1       1.05775    0.51906    0.35053   1.00
C6       1.10912    0.51654    0.20766   1.00
C6       1.10277    0.54022    0.29234   1.00
H2       1.13282    0.50493    0.22642   1.00
H2       1.10948    0.49620    0.18263   1.00
C6       1.11848    0.55778    0.19276   1.00
H2       1.11750    0.56212    0.27358   1.00
H2       1.09292    0.55802    0.31737   1.00
C6       1.13150    0.50919    0.30724   1.00
H2       1.11930    0.57905    0.21726   1.00
C6       1.15771    0.55825    0.17168   1.00
H2       1.09520    0.56774    0.17240   1.00
C6       1.16571    0.52839    0.32832   1.00
H2       1.11631    0.48892    0.32760   1.00
H2       1.14284    0.49117    0.28274   1.00
H2       1.18150    0.54921    0.19178   1.00
H2       1.15719    0.53820    0.14620   1.00
H2       1.16411    0.58818    0.16102   1.00
H2       1.18179    0.54811    0.30822   1.00
H2       1.15524    0.54549    0.35380   1.00
H2       1.18622    0.50566    0.33898   1.00
