data_IRMOF10_interpen_symm_ligand11lp_label_k_1.

_audit_creation_method             'generated by an auxiliary program of Tobunporous'

_symmetry_space_group_name_H-M     'P 1'
_symmetry_Int_Tables_number        1
_symmetry_cell_setting             triclinic

_cell_length_a                    22.6523
_cell_length_b                    22.6523
_cell_length_c                    65.9502
_cell_angle_alpha                 90.0000
_cell_angle_beta                  90.0000
_cell_angle_gamma                 120.0000

loop_
_atom_site_label
_atom_site_fract_x
_atom_site_fract_y
_atom_site_fract_z
_atom_site_occupancy
O1       0.00000    -0.00000   0.62500   1.00
Zn1      0.00000    -0.00000   0.59589   1.00
Zn1      0.94848    1.04288    0.63392   1.00
Zn1      0.09439    0.05152    0.63392   1.00
Zn1      -0.04288   0.90561    0.63392   1.00
O2       0.93860    0.02610    0.58587   1.00
O2       0.08750    0.06140    0.58587   1.00
O2       -0.02610   0.91250    0.58587   1.00
O2       0.91305    0.07161    0.61181   1.00
O2       0.00462    0.12022    0.65110   1.00
O2       0.87413    0.98074    0.65071   1.00
O2       0.15856    0.08695    0.61181   1.00
O2       0.10660    0.12587    0.65071   1.00
O2       0.11559    0.99538    0.65110   1.00
O2       -0.07161   0.84144    0.61181   1.00
O2       0.87978    0.88441    0.65110   1.00
O2       0.01926    0.89340    0.65071   1.00
C1       0.91390    0.06020    0.59358   1.00
C1       0.14630    0.08610    0.59358   1.00
C1       -0.06020   0.85370    0.59358   1.00
C1       0.06663    0.14397    0.65673   1.00
C1       0.85603    0.92267    0.65673   1.00
C1       0.07733    0.93337    0.65673   1.00
O1       -0.00000   0.00000    0.87500   1.00
Zn1      -0.00000   0.00000    0.90411   1.00
Zn1      1.04288    0.94848    0.86608   1.00
Zn1      0.05152    0.09439    0.86608   1.00
Zn1      0.90561    -0.04288   0.86608   1.00
O2       0.02610    0.93860    0.91413   1.00
O2       0.06140    0.08750    0.91413   1.00
O2       0.91250    -0.02610   0.91413   1.00
O2       0.07161    0.91305    0.88819   1.00
O2       0.12022    0.00462    0.84890   1.00
O2       0.98074    0.87413    0.84929   1.00
O2       0.08695    0.15856    0.88819   1.00
O2       0.12587    0.10660    0.84929   1.00
O2       0.99538    0.11559    0.84890   1.00
O2       0.84144    -0.07161   0.88819   1.00
O2       0.88441    0.87978    0.84890   1.00
O2       0.89340    0.01926    0.84929   1.00
C1       0.06020    0.91390    0.90642   1.00
C1       0.08610    0.14630    0.90642   1.00
C1       0.85370    -0.06020   0.90642   1.00
C1       0.14397    0.06663    0.84327   1.00
C1       0.92267    0.85603    0.84327   1.00
C1       0.93337    0.07733    0.84327   1.00
O1       0.00000    0.00000    0.37500   1.00
Zn1      0.00000    0.00000    0.40411   1.00
Zn1      0.05152    -0.04288   0.36608   1.00
Zn1      0.90561    0.94848    0.36608   1.00
Zn1      1.04288    0.09439    0.36608   1.00
O2       0.06140    -0.02610   0.41413   1.00
O2       0.91250    0.93860    0.41413   1.00
O2       0.02610    0.08750    0.41413   1.00
O2       0.08695    -0.07161   0.38819   1.00
O2       0.99538    0.87978    0.34890   1.00
O2       0.12587    0.01926    0.34929   1.00
O2       0.84144    0.91305    0.38819   1.00
O2       0.89340    0.87413    0.34929   1.00
O2       0.88441    0.00462    0.34890   1.00
O2       0.07161    0.15856    0.38819   1.00
O2       0.12022    0.11559    0.34890   1.00
O2       0.98074    0.10660    0.34929   1.00
C1       0.08610    -0.06020   0.40642   1.00
C1       0.85370    0.91390    0.40642   1.00
C1       0.06020    0.14630    0.40642   1.00
C1       0.93337    0.85603    0.34327   1.00
C1       0.14397    0.07733    0.34327   1.00
C1       0.92267    0.06663    0.34327   1.00
O1       0.00000    0.00000    0.12500   1.00
Zn1      0.00000    0.00000    0.09589   1.00
Zn1      -0.04288   0.05152    0.13392   1.00
Zn1      0.94848    0.90561    0.13392   1.00
Zn1      0.09439    1.04288    0.13392   1.00
O2       -0.02610   0.06140    0.08587   1.00
O2       0.93860    0.91250    0.08587   1.00
O2       0.08750    0.02610    0.08587   1.00
O2       -0.07161   0.08695    0.11181   1.00
O2       0.87978    0.99538    0.15110   1.00
O2       0.01926    0.12587    0.15071   1.00
O2       0.91305    0.84144    0.11181   1.00
O2       0.87413    0.89340    0.15071   1.00
O2       0.00462    0.88441    0.15110   1.00
O2       0.15856    0.07161    0.11181   1.00
O2       0.11559    0.12022    0.15110   1.00
O2       0.10660    0.98074    0.15071   1.00
C1       -0.06020   0.08610    0.09358   1.00
C1       0.91390    0.85370    0.09358   1.00
C1       0.14630    0.06020    0.09358   1.00
C1       0.85603    0.93337    0.15673   1.00
C1       0.07733    0.14397    0.15673   1.00
C1       0.06663    0.92267    0.15673   1.00
O1       0.66667    0.33333    0.95833   1.00
Zn1      0.66667    0.33333    0.92922   1.00
Zn1      0.61515    0.37621    0.96725   1.00
Zn1      0.76106    0.38485    0.96725   1.00
Zn1      -0.37621   0.23894    0.96725   1.00
O2       0.60527    0.35943    0.91920   1.00
O2       0.75417    0.39473    0.91920   1.00
O2       0.64057    0.24583    0.91920   1.00
O2       0.57972    0.40494    0.94514   1.00
O2       0.67129    0.45355    0.98443   1.00
O2       0.54080    0.31407    0.98404   1.00
O2       0.82523    0.42028    0.94514   1.00
O2       0.77327    0.45920    0.98404   1.00
O2       -0.21774   0.32871    0.98443   1.00
O2       0.59506    0.17477    0.94514   1.00
O2       0.54645    0.21774    0.98443   1.00
O2       -0.31407   0.22673    0.98404   1.00
C1       0.58057    0.39353    0.92691   1.00
C1       0.81297    0.41943    0.92691   1.00
C1       0.60647    0.18703    0.92691   1.00
C1       0.73330    0.47730    0.99006   1.00
C1       0.52270    0.25600    0.99006   1.00
C1       -0.25600   0.26670    0.99006   1.00
O1       0.66667    0.33333    0.20833   1.00
Zn1      0.66667    0.33333    0.23744   1.00
Zn1      0.70954    0.28182    0.19942   1.00
Zn1      0.71818    0.42773    0.19942   1.00
Zn1      0.57227    0.29046    0.19942   1.00
O2       0.69277    0.27193    0.24746   1.00
O2       0.72807    0.42083    0.24746   1.00
O2       0.57917    0.30723    0.24746   1.00
O2       0.73828    0.24638    0.22152   1.00
O2       0.78688    0.33796    0.18224   1.00
O2       0.64740    0.20747    0.18263   1.00
O2       0.75362    0.49189    0.22152   1.00
O2       0.79253    0.43994    0.18263   1.00
O2       0.66204    0.44893    0.18224   1.00
O2       0.50811    0.26172    0.22152   1.00
O2       0.55107    0.21312    0.18224   1.00
O2       0.56006    0.35260    0.18263   1.00
C1       0.72687    0.24723    0.23975   1.00
C1       0.75277    0.47963    0.23975   1.00
C1       0.52037    0.27313    0.23975   1.00
C1       0.81063    0.39997    0.17661   1.00
C1       0.58933    0.18937    0.17661   1.00
C1       0.60003    0.41067    0.17661   1.00
O1       0.66667    0.33333    0.70833   1.00
Zn1      0.66667    0.33333    0.73744   1.00
Zn1      0.71818    0.29046    0.69942   1.00
Zn1      0.57227    0.28182    0.69942   1.00
Zn1      0.70954    0.42773    0.69942   1.00
O2       0.72807    0.30723    0.74746   1.00
O2       0.57917    0.27193    0.74746   1.00
O2       0.69277    0.42083    0.74746   1.00
O2       0.75362    0.26172    0.72152   1.00
O2       0.66204    0.21312    0.68224   1.00
O2       0.79253    0.35260    0.68263   1.00
O2       0.50811    0.24638    0.72152   1.00
O2       0.56006    0.20747    0.68263   1.00
O2       0.55107    0.33796    0.68224   1.00
O2       0.73828    0.49189    0.72152   1.00
O2       0.78688    0.44893    0.68224   1.00
O2       0.64740    0.43994    0.68263   1.00
C1       0.75277    0.27313    0.73975   1.00
C1       0.52037    0.24723    0.73975   1.00
C1       0.72687    0.47963    0.73975   1.00
C1       0.60003    0.18937    0.67661   1.00
C1       0.81063    0.41067    0.67661   1.00
C1       0.58933    0.39997    0.67661   1.00
O1       0.66667    0.33333    0.45833   1.00
Zn1      0.66667    0.33333    0.42922   1.00
Zn1      -0.37621   0.38485    0.46725   1.00
Zn1      0.61515    0.23894    0.46725   1.00
Zn1      0.76106    0.37621    0.46725   1.00
O2       0.64057    0.39473    0.41920   1.00
O2       0.60527    0.24583    0.41920   1.00
O2       0.75417    0.35943    0.41920   1.00
O2       0.59506    0.42028    0.44514   1.00
O2       0.54645    0.32871    0.48443   1.00
O2       -0.31407   0.45920    0.48404   1.00
O2       0.57972    0.17477    0.44514   1.00
O2       0.54080    0.22673    0.48404   1.00
O2       0.67129    0.21774    0.48443   1.00
O2       0.82523    0.40494    0.44514   1.00
O2       -0.21774   0.45355    0.48443   1.00
O2       0.77327    0.31407    0.48404   1.00
C1       0.60647    0.41943    0.42691   1.00
C1       0.58057    0.18703    0.42691   1.00
C1       0.81297    0.39353    0.42691   1.00
C1       0.52270    0.26670    0.49006   1.00
C1       -0.25600   0.47730    0.49006   1.00
C1       0.73330    0.25600    0.49006   1.00
O1       0.33333    0.66667    0.29167   1.00
Zn1      0.33333    0.66667    0.26256   1.00
Zn1      0.28182    0.70954    0.30058   1.00
Zn1      0.42773    0.71818    0.30058   1.00
Zn1      0.29046    0.57227    0.30058   1.00
O2       0.27193    0.69277    0.25254   1.00
O2       0.42083    0.72807    0.25254   1.00
O2       0.30723    0.57917    0.25254   1.00
O2       0.24638    0.73828    0.27848   1.00
O2       0.33796    0.78688    0.31776   1.00
O2       0.20747    0.64740    0.31737   1.00
O2       0.49189    0.75362    0.27848   1.00
O2       0.43994    0.79253    0.31737   1.00
O2       0.44893    0.66204    0.31776   1.00
O2       0.26172    0.50811    0.27848   1.00
O2       0.21312    0.55107    0.31776   1.00
O2       0.35260    0.56006    0.31737   1.00
C1       0.24723    0.72687    0.26025   1.00
C1       0.47963    0.75277    0.26025   1.00
C1       0.27313    0.52037    0.26025   1.00
C1       0.39997    0.81063    0.32339   1.00
C1       0.18937    0.58933    0.32339   1.00
C1       0.41067    0.60003    0.32339   1.00
O1       0.33333    0.66667    0.54167   1.00
Zn1      0.33333    0.66667    0.57078   1.00
Zn1      0.37621    0.61515    0.53275   1.00
Zn1      0.38485    0.76106    0.53275   1.00
Zn1      0.23894    -0.37621   0.53275   1.00
O2       0.35943    0.60527    0.58080   1.00
O2       0.39473    0.75417    0.58080   1.00
O2       0.24583    0.64057    0.58080   1.00
O2       0.40494    0.57972    0.55486   1.00
O2       0.45355    0.67129    0.51557   1.00
O2       0.31407    0.54080    0.51596   1.00
O2       0.42028    0.82523    0.55486   1.00
O2       0.45920    0.77327    0.51596   1.00
O2       0.32871    -0.21774   0.51557   1.00
O2       0.17477    0.59506    0.55486   1.00
O2       0.21774    0.54645    0.51557   1.00
O2       0.22673    -0.31407   0.51596   1.00
C1       0.39353    0.58057    0.57309   1.00
C1       0.41943    0.81297    0.57309   1.00
C1       0.18703    0.60647    0.57309   1.00
C1       0.47730    0.73330    0.50994   1.00
C1       0.25600    0.52270    0.50994   1.00
C1       0.26670    -0.25600   0.50994   1.00
O1       0.33333    0.66667    0.04167   1.00
Zn1      0.33333    0.66667    0.07078   1.00
Zn1      0.38485    -0.37621   0.03275   1.00
Zn1      0.23894    0.61515    0.03275   1.00
Zn1      0.37621    0.76106    0.03275   1.00
O2       0.39473    0.64057    0.08080   1.00
O2       0.24583    0.60527    0.08080   1.00
O2       0.35943    0.75417    0.08080   1.00
O2       0.42028    0.59506    0.05486   1.00
O2       0.32871    0.54645    0.01557   1.00
O2       0.45920    -0.31407   0.01596   1.00
O2       0.17477    0.57972    0.05486   1.00
O2       0.22673    0.54080    0.01596   1.00
O2       0.21774    0.67129    0.01557   1.00
O2       0.40494    0.82523    0.05486   1.00
O2       0.45355    -0.21774   0.01557   1.00
O2       0.31407    0.77327    0.01596   1.00
C1       0.41943    0.60647    0.07309   1.00
C1       0.18703    0.58057    0.07309   1.00
C1       0.39353    0.81297    0.07309   1.00
C1       0.26670    0.52270    0.00994   1.00
C1       0.47730    -0.25600   0.00994   1.00
C1       0.25600    0.73330    0.00994   1.00
O1       0.33333    0.66667    0.79167   1.00
Zn1      0.33333    0.66667    0.76256   1.00
Zn1      0.29046    0.71818    0.80058   1.00
Zn1      0.28182    0.57227    0.80058   1.00
Zn1      0.42773    0.70954    0.80058   1.00
O2       0.30723    0.72807    0.75254   1.00
O2       0.27193    0.57917    0.75254   1.00
O2       0.42083    0.69277    0.75254   1.00
O2       0.26172    0.75362    0.77848   1.00
O2       0.21312    0.66204    0.81776   1.00
O2       0.35260    0.79253    0.81737   1.00
O2       0.24638    0.50811    0.77848   1.00
O2       0.20747    0.56006    0.81737   1.00
O2       0.33796    0.55107    0.81776   1.00
O2       0.49189    0.73828    0.77848   1.00
O2       0.44893    0.78688    0.81776   1.00
O2       0.43994    0.64740    0.81737   1.00
C1       0.27313    0.75277    0.76025   1.00
C1       0.24723    0.52037    0.76025   1.00
C1       0.47963    0.72687    0.76025   1.00
C1       0.18937    0.60003    0.82339   1.00
C1       0.41067    0.81063    0.82339   1.00
C1       0.39997    0.58933    0.82339   1.00
C5       0.11587    0.95579    0.55440   1.00
H2       0.08969    0.98584    0.55626   1.00
H2       0.12875    0.95881    0.53804   1.00
C5       0.18153    0.98783    0.56742   1.00
H2       0.22395    1.03212    0.55947   1.00
H2       0.19708    0.94923    0.57058   1.00
O_3      -0.08615   0.60303    0.54680   1.00
C4       -0.13433   0.69595    0.54832   1.00
C3c      -0.07702   0.76065    0.54518   1.00
H1       -0.05045   0.77233    0.53083   1.00
C3d      -0.16881   0.68210    0.56703   1.00
C3       -0.05254   0.81076    0.56049   1.00
O2       -0.00149   0.87536    0.55549   1.00
C3       -0.14379   0.73143    0.58244   1.00
H1       -0.17049   0.71765    0.59679   1.00
C2       -0.08547   0.79686    0.57960   1.00
C5       -0.11744   0.55058    0.56137   1.00
H2       -0.14097   0.49888    0.55439   1.00
H2       -0.15790   0.55462    0.56987   1.00
C5       -0.06258   0.55816    0.57614   1.00
H2       -0.03775   0.61051    0.58269   1.00
H2       -0.02280   0.55341    0.56752   1.00
C5       -0.09280   0.50436    0.59299   1.00
H2       -0.11810   0.45196    0.58654   1.00
H2       -0.13082   0.51056    0.60205   1.00
H2       -0.05172   0.50975    0.60338   1.00
C5       -0.28395   0.61206    0.56463   1.00
C5       0.06276    0.88251    0.56008   1.00
H2       -0.28363   0.61852    0.54790   1.00
H2       -0.29383   0.65063    0.57202   1.00
H2       0.07084    0.84558    0.55099   1.00
H2       0.06771    0.87274    0.57645   1.00
H2       0.17388    1.00782    0.58210   1.00
H2       -0.40293   0.51529    0.54221   1.00
H2       -0.42200   0.56230    0.56094   1.00
C2       -0.20664   0.53893    0.50322   1.00
C3       -0.22876   0.58719    0.50304   1.00
O2       -0.28539   0.57511    0.49194   1.00
C3       -0.15798   0.54600    0.51792   1.00
H1       -0.13870   0.51094    0.51813   1.00
C3a      -0.20350   0.63971    0.51767   1.00
H1       -0.22385   0.67391    0.51805   1.00
C3b      -0.13462   0.59696    0.53285   1.00
C4       -0.15744   0.64427    0.53285   1.00
O_3      -0.22230   0.61761    0.57144   1.00
C5       -0.26539   0.61301    0.47376   1.00
H2       -0.23442   0.66888    0.47685   1.00
C5       -0.33072   0.59778    0.46255   1.00
H2       -0.23488   0.59774    0.46408   1.00
H2       -0.35089   0.62902    0.46946   1.00
H2       -0.36931   0.54345    0.46554   1.00
C5       -0.31989   0.61132    0.43955   1.00
H2       -0.27753   0.66415    0.43688   1.00
H2       -0.36692   0.60524    0.43223   1.00
H2       -0.30802   0.57431    0.43196   1.00
C5       -0.34127   0.54099    0.57012   1.00
H2       -0.34917   0.53868    0.58684   1.00
H2       -0.32433   0.50377    0.56639   1.00
C5       -0.40778   0.52227    0.55876   1.00
H2       -0.45008   0.47340    0.56468   1.00
C5       0.12635    0.26434    0.57940   1.00
H2       0.07859    0.21583    0.57620   1.00
H2       0.13376    0.29834    0.56633   1.00
C5       0.11804    0.29582    0.59928   1.00
H2       0.09021    0.32396    0.59644   1.00
H2       0.16900    0.33158    0.60582   1.00
O_3      0.43424    0.27963    0.55727   1.00
C4       0.30375    0.16978    0.54824   1.00
C3c      0.25844    0.19444    0.55108   1.00
H1       0.26206    0.23475    0.54145   1.00
C3d      0.29754    0.11657    0.56076   1.00
C3       0.20866    0.16842    0.56648   1.00
O2       0.16093    0.18911    0.56675   1.00
C3       0.24888    0.09145    0.57636   1.00
H1       0.24763    0.05232    0.58605   1.00
C2       0.20315    0.11632    0.57959   1.00
C5       0.47501    0.25917    0.56798   1.00
H2       0.52475    0.27580    0.56030   1.00
H2       0.44824    0.20260    0.56975   1.00
C5       0.48898    0.29196    0.58884   1.00
H2       0.43925    0.27688    0.59629   1.00
H2       0.51627    0.34841    0.58690   1.00
C5       0.53118    0.27034    0.60182   1.00
H2       0.58071    0.28481    0.59440   1.00
H2       0.50296    0.21424    0.60436   1.00
H2       0.54215    0.29598    0.61684   1.00
C5       0.32228    0.04203    0.54489   1.00
C5       0.18283    0.24592    0.57977   1.00
H2       0.31972    0.06122    0.52957   1.00
H2       0.27116    -0.00216   0.54868   1.00
H2       0.23167    0.28954    0.57412   1.00
H2       0.19186    0.23478    0.59564   1.00
H2       0.08726    0.25544    0.61069   1.00
H2       0.38140    0.00723    0.51140   1.00
H2       0.31293    -0.06728   0.52381   1.00
C2       0.46110    0.25203    0.50320   1.00
C3       0.39501    0.19935    0.49805   1.00
O2       0.38432    0.16245    0.48043   1.00
C3       0.47265    0.27872    0.52314   1.00
H1       0.52220    0.32024    0.52741   1.00
C3a      0.34303    0.17358    0.51285   1.00
H1       0.29379    0.13066    0.50900   1.00
C3b      0.42144    0.25151    0.53800   1.00
C4       0.35606    0.19844    0.53294   1.00
O_3      0.34412    0.09407    0.55960   1.00
C5       0.35574    0.18496    0.46540   1.00
H2       0.30593    0.17888    0.47046   1.00
C5       0.34442    0.14101    0.44656   1.00
H2       0.39086    0.23960    0.46158   1.00
H2       0.29682    0.09118    0.44874   1.00
H2       0.38704    0.12985    0.44584   1.00
C5       0.34063    0.17544    0.42681   1.00
H2       0.30151    0.19107    0.42840   1.00
H2       0.32670    0.13980    0.41373   1.00
H2       0.39100    0.22104    0.42305   1.00
C5       0.37423    0.01808    0.54441   1.00
H2       0.36833    -0.01162   0.55848   1.00
H2       0.42622    0.06387    0.54487   1.00
C5       0.36639    -0.02474   0.52540   1.00
H2       0.40010    -0.04717   0.52660   1.00
C5       0.75418    0.06432    0.63252   1.00
H2       0.74531    0.01163    0.63111   1.00
H2       0.70327    0.05990    0.63098   1.00
C5       0.78512    0.09349    0.65360   1.00
H2       0.74457    0.07509    0.66540   1.00
H2       0.81239    0.15021    0.65319   1.00
O_3      0.86757    0.27195    0.54696   1.00
C4       0.82936    0.13308    0.54824   1.00
C3c      0.79595    0.10848    0.56688   1.00
H1       0.74847    0.10750    0.56977   1.00
C3d      0.89066    0.13301    0.54467   1.00
C3       0.82345    0.08577    0.58214   1.00
O2       0.78390    0.05475    0.59895   1.00
C3       0.91885    0.11166    0.55998   1.00
H1       0.96718    0.11480    0.55681   1.00
C2       0.88611    0.08732    0.57900   1.00
C5       0.93278    0.31312    0.53837   1.00
H2       0.93171    0.34434    0.52545   1.00
H2       0.95454    0.28146    0.53279   1.00
C5       0.97883    0.36098    0.55482   1.00
H2       0.97839    0.32983    0.56796   1.00
H2       0.95697    0.39276    0.56014   1.00
C5       1.05172    0.40613    0.54693   1.00
H2       1.05248    0.43703    0.53372   1.00
H2       1.07445    0.37456    0.54227   1.00
H2       1.08425    0.44179    0.55903   1.00
C5       0.90534    0.11156    0.51180   1.00
C5       0.79937    0.10348    0.61445   1.00
H2       0.85099    0.09278    0.50794   1.00
H2       0.91101    0.06717    0.51633   1.00
H2       0.78762    0.14340    0.60926   1.00
H2       0.85439    0.12992    0.61892   1.00
H2       0.82136    0.07621    0.65845   1.00
H2       0.86939    0.10128    0.46940   1.00
H2       0.90583    0.04838    0.47618   1.00
C2       0.75231    0.20995    0.50215   1.00
C3       0.72965    0.13952    0.50315   1.00
O2       0.69675    0.09771    0.48683   1.00
C3       0.79794    0.25318    0.51723   1.00
H1       0.81486    0.30705    0.51720   1.00
C3a      0.75410    0.11437    0.51866   1.00
H1       0.73931    0.06098    0.51854   1.00
C3b      0.82385    0.22836    0.53225   1.00
C4       0.80209    0.15850    0.53304   1.00
O_3      0.92815    0.16147    0.52720   1.00
C5       0.62582    0.06028    0.49035   1.00
H2       0.61361    0.02790    0.50422   1.00
C5       0.59333    0.01458    0.47182   1.00
H2       0.60454    0.09497    0.49221   1.00
H2       0.59995    -0.03077   0.47322   1.00
H2       0.62310    0.04339    0.45825   1.00
C5       0.51732    -0.00766   0.46923   1.00
H2       0.48940    -0.03150   0.48350   1.00
H2       0.49413    -0.04528   0.45667   1.00
H2       0.51050    0.03656    0.46524   1.00
C5       0.94873    0.14473    0.49307   1.00
H2       1.00077    0.15275    0.49583   1.00
H2       0.95424    0.19614    0.49119   1.00
C5       0.91717    0.10171    0.47384   1.00
H2       0.95342    0.12368    0.46096   1.00
C5       0.67881    -0.11096   0.86467   1.00
H2       0.71643    -0.05553   0.86419   1.00
H2       0.62783    -0.11510   0.86496   1.00
C5       0.68657    -0.14578   0.84546   1.00
H2       0.65961    -0.13893   0.83234   1.00
H2       0.66513    -0.20127   0.84827   1.00
O_3      0.61292    -0.27410   0.95828   1.00
C4       0.69619    -0.13302   0.95173   1.00
C3c      0.68266    -0.12123   0.93181   1.00
H1       0.63240    -0.13038   0.92790   1.00
C3d      0.76229    -0.11984   0.95658   1.00
C3       0.73306    -0.09851   0.91661   1.00
O2       0.71862    -0.08017   0.89816   1.00
C3       0.81221    -0.09846   0.94139   1.00
H1       0.86144    -0.09134   0.94566   1.00
C2       0.79918    -0.08700   0.92111   1.00
C5       0.64615    -0.30214   0.96949   1.00
H2       0.61669    -0.33006   0.98322   1.00
H2       0.69786    -0.26164   0.97445   1.00
C5       0.65334    -0.35210   0.95577   1.00
H2       0.68111    -0.32464   0.94179   1.00
H2       0.60140    -0.39264   0.95107   1.00
C5       0.69129    -0.38328   0.96659   1.00
H2       0.66409    -0.41038   0.98065   1.00
H2       0.74400    -0.34310   0.97066   1.00
H2       0.69473    -0.42076   0.95649   1.00
C5       0.79653    -0.07946   0.98867   1.00
C5       0.69201    -0.13640   0.88474   1.00
H2       0.75464    -0.06784   0.99070   1.00
H2       0.84254    -0.03283   0.98289   1.00
H2       0.64344    -0.17907   0.89090   1.00
H2       0.72778    -0.15638   0.88237   1.00
H2       0.74126    -0.12261   0.84089   1.00
H2       0.76591    -0.05634   1.02944   1.00
H2       0.85280    0.00419    1.02183   1.00
C2       0.54305    -0.20938   0.99805   1.00
C3       0.58175    -0.13860   0.99432   1.00
O2       0.58333    -0.09271   1.00838   1.00
C3       0.55390    -0.25384   0.98553   1.00
H1       0.52387    -0.30838   0.98766   1.00
C3a      0.63105    -0.11395   0.97872   1.00
H1       0.66295    -0.05945   0.97681   1.00
C3b      0.60446    -0.22905   0.97046   1.00
C4       0.64363    -0.15862   0.96697   1.00
O_3      0.77679    -0.13551   0.97555   1.00
C5       0.54045    -0.06749   1.00217   1.00
H2       0.55664    -0.04126   0.98717   1.00
C5       0.54590    -0.01638   1.01830   1.00
H2       0.48646    -0.10950   1.00099   1.00
H2       0.59373    0.03285    1.01561   1.00
H2       0.55187    -0.03562   1.03327   1.00
C5       0.48379    -0.00567   1.01851   1.00
H2       0.47539    0.00828    1.00305   1.00
H2       0.49217    0.03587    1.02920   1.00
H2       0.43670    -0.05257   1.02372   1.00
C5       0.81315    -0.09852   1.00917   1.00
H2       0.86215    -0.09857   1.00782   1.00
H2       0.77296    -0.15175   1.01279   1.00
C5       0.81717    -0.04979   1.02610   1.00
H2       0.83627    -0.06079   1.04031   1.00
C5       0.26385    0.12573    0.92078   1.00
H2       0.21523    0.07806    0.92396   1.00
H2       0.29771    0.13305    0.93388   1.00
C5       0.29541    0.11730    0.90094   1.00
H2       0.32338    0.08934    0.90382   1.00
H2       0.33134    0.16823    0.89441   1.00
O_3      0.27996    0.43409    0.94277   1.00
C4       0.16978    0.30375    0.95176   1.00
C3c      0.19427    0.25829    0.94896   1.00
H1       0.23445    0.26178    0.95864   1.00
C3d      0.11674    0.29771    0.93919   1.00
C3       0.16825    0.20850    0.93357   1.00
O2       0.18876    0.16063    0.93334   1.00
C3       0.09163    0.24904    0.92359   1.00
H1       0.05264    0.24791    0.91387   1.00
C2       0.11633    0.20315    0.92041   1.00
C5       0.25974    0.47499    0.93202   1.00
H2       0.27645    0.52476    0.93969   1.00
H2       0.20320    0.44836    0.93021   1.00
C5       0.29270    0.48887    0.91118   1.00
H2       0.27754    0.43911    0.90374   1.00
H2       0.34913    0.51602    0.91317   1.00
C5       0.27136    0.53120    0.89817   1.00
H2       0.28591    0.58077    0.90557   1.00
H2       0.21528    0.50312    0.89559   1.00
H2       0.29712    0.54210    0.88316   1.00
C5       0.04228    0.32273    0.95498   1.00
C5       0.24564    0.18237    0.92036   1.00
H2       0.06130    0.32011    0.97031   1.00
H2       -0.00198   0.27168    0.95116   1.00
H2       0.28931    0.23115    0.92603   1.00
H2       0.23468    0.19145    0.90448   1.00
H2       0.25509    0.08660    0.88951   1.00
H2       0.00746    0.38207    0.98840   1.00
H2       -0.06706   0.31374    0.97595   1.00
C2       0.25204    0.46111    0.99680   1.00
C3       0.19919    0.39508    1.00194   1.00
O2       0.16218    0.38450    1.01952   1.00
C3       0.27889    0.47258    0.97688   1.00
H1       0.32055    0.52207    0.97262   1.00
C3a      0.17342    0.34310    0.98713   1.00
H1       0.13037    0.29392    0.99097   1.00
C3b      0.25168    0.42137    0.96202   1.00
C4       0.19844    0.35605    0.96706   1.00
O_3      0.09442    0.34444    0.94031   1.00
C5       0.18443    0.35580    1.03459   1.00
H2       0.17824    0.30593    1.02955   1.00
C5       0.14036    0.34462    1.05339   1.00
H2       0.23906    0.39080    1.03844   1.00
H2       0.09047    0.29710    1.05118   1.00
H2       0.12936    0.38734    1.05407   1.00
C5       0.17456    0.34072    1.07318   1.00
H2       0.19005    0.30147    1.07162   1.00
H2       0.13883    0.32688    1.08623   1.00
H2       0.22022    0.39102    1.07695   1.00
C5       0.01853    0.37485    0.95540   1.00
H2       -0.01102   0.36903    0.94131   1.00
H2       0.06442    0.42677    0.95496   1.00
C5       -0.02440   0.36714    0.97438   1.00
H2       -0.04667   0.40098    0.97314   1.00
C5       0.06424    0.75413    0.86749   1.00
H2       0.01156    0.74527    0.86890   1.00
H2       0.05981    0.70321    0.86903   1.00
C5       0.09339    0.78504    0.84641   1.00
H2       0.07498    0.74449    0.83461   1.00
H2       0.15012    0.81230    0.84681   1.00
O_3      0.27194    0.86754    0.95303   1.00
C4       0.13308    0.82936    0.95176   1.00
C3c      0.10846    0.79594    0.93312   1.00
H1       0.10746    0.74845    0.93023   1.00
C3d      0.13304    0.89068    0.95533   1.00
C3       0.08575    0.82344    0.91786   1.00
O2       0.05470    0.78388    0.90106   1.00
C3       0.11168    0.91886    0.94002   1.00
H1       0.11484    0.96720    0.94318   1.00
C2       0.08732    0.88611    0.92100   1.00
C5       0.31313    0.93274    0.96162   1.00
H2       0.34436    0.93167    0.97453   1.00
H2       0.28149    0.95452    0.96719   1.00
C5       0.36099    0.97878    0.94516   1.00
H2       0.32983    0.97834    0.93202   1.00
H2       0.39275    0.95690    0.93984   1.00
C5       0.40616    1.05167    0.95305   1.00
H2       0.43707    1.05243    0.96626   1.00
H2       0.37460    1.07442    0.95770   1.00
H2       0.44181    1.08419    0.94095   1.00
C5       0.11162    0.90539    0.98819   1.00
C5       0.10342    0.79932    0.88555   1.00
H2       0.09283    0.85104    0.99206   1.00
H2       0.06723    0.91107    0.98367   1.00
H2       0.14333    0.78757    0.89074   1.00
H2       0.12987    0.85434    0.88108   1.00
H2       0.07612    0.82129    0.84155   1.00
H2       0.10136    0.86947    1.03060   1.00
H2       0.04847    0.90593    1.02382   1.00
C2       0.20995    0.75231    0.99785   1.00
C3       0.13952    0.72967    0.99685   1.00
O2       0.09772    0.69678    1.01318   1.00
C3       0.25318    0.79792    0.98277   1.00
H1       0.30705    0.81483    0.98280   1.00
C3a      0.11437    0.75412    0.98134   1.00
H1       0.06099    0.73935    0.98147   1.00
C3b      0.22835    0.82383    0.96775   1.00
C4       0.15850    0.80209    0.96696   1.00
O_3      0.16151    0.92817    0.97279   1.00
C5       0.06028    0.62585    1.00966   1.00
H2       0.02788    0.61364    0.99580   1.00
C5       0.01459    0.59339    1.02819   1.00
H2       0.09495    0.60456    1.00780   1.00
H2       -0.03075   0.60003    1.02680   1.00
H2       0.04341    0.62317    1.04176   1.00
C5       -0.00768   0.51738    1.03079   1.00
H2       -0.03153   0.48945    1.01652   1.00
H2       -0.04528   0.49420    1.04335   1.00
H2       0.03654    0.51054    1.03478   1.00
C5       0.14481    0.94879    1.00693   1.00
H2       0.15285    1.00083    1.00416   1.00
H2       0.19622    0.95428    1.00880   1.00
C5       0.10180    0.91725    1.02616   1.00
H2       0.12379    0.95351    1.03904   1.00
C5       -0.03565   0.01072    0.45658   1.00
H2       -0.07466   0.00788    0.44580   1.00
H2       -0.05562   0.01066    0.47198   1.00
C5       -0.02696   -0.05235   0.45375   1.00
H2       -0.06776   -0.09732   0.46192   1.00
H2       0.02361    -0.04135   0.45965   1.00
O_3      0.24705    0.32980    0.47523   1.00
C4       0.13333    0.30447    0.45154   1.00
C3c      0.08318    0.23678    0.45566   1.00
H1       0.06202    0.22284    0.47076   1.00
C3d      0.15953    0.32177    0.43170   1.00
C3       0.06029    0.18600    0.44057   1.00
O2       0.00539    0.12301    0.44505   1.00
C3       0.13779    0.27107    0.41673   1.00
H1       0.16109    0.28627    0.40193   1.00
C2       0.08766    0.20222    0.42070   1.00
C5       0.30942    0.36928    0.46492   1.00
H2       0.34540    0.41579    0.47361   1.00
H2       0.30106    0.38562    0.44974   1.00
C5       0.34197    0.32521    0.46212   1.00
H2       0.30525    0.27783    0.45394   1.00
H2       0.35067    0.30973    0.47738   1.00
C5       0.40919    0.36357    0.45034   1.00
H2       0.44593    0.41119    0.45836   1.00
H2       0.40022    0.37698    0.43485   1.00
H2       0.43296    0.33111    0.44884   1.00
C5       0.18590    0.42886    0.42194   1.00
C5       0.02846    0.07941    0.45241   1.00
H2       0.15707    0.43431    0.43476   1.00
H2       0.15152    0.40878    0.40849   1.00
H2       0.05818    0.10056    0.46668   1.00
H2       0.06230    0.07299    0.44135   1.00
H2       -0.03136   -0.06732   0.43742   1.00
H2       0.21227    0.56430    0.43168   1.00
H2       0.18058    0.53848    0.40600   1.00
C2       0.21055    0.45944    0.49732   1.00
C3       0.15130    0.44514    0.48635   1.00
O2       0.12768    0.49073    0.48646   1.00
C3       0.24117    0.41928    0.49347   1.00
H1       0.28554    0.42776    0.50198   1.00
C3a      0.12528    0.39294    0.47162   1.00
H1       0.08220    0.38522    0.46255   1.00
C3b      0.21646    0.36888    0.47836   1.00
C4       0.15817    0.35543    0.46725   1.00
O_3      0.21259    0.38644    0.42723   1.00
C5       0.07146    0.46795    0.49968   1.00
H2       0.02879    0.41695    0.49499   1.00
C5       0.04768    0.52037    0.49868   1.00
H2       0.08625    0.46431    0.51556   1.00
H2       0.01642    0.51060    0.48473   1.00
H2       0.09389    0.57153    0.49674   1.00
C5       0.00711    0.51924    0.51761   1.00
H2       -0.03568   0.46659    0.52023   1.00
H2       -0.01414   0.55383    0.51558   1.00
H2       0.04036    0.53743    0.53138   1.00
C5       0.24585    0.49884    0.41681   1.00
H2       0.26743    0.49544    0.40196   1.00
H2       0.28635    0.51208    0.42841   1.00
C5       0.22507    0.55400    0.41621   1.00
H2       0.26803    0.60260    0.41038   1.00
C5       0.72210    0.71319    0.37638   1.00
H2       0.72590    0.75519    0.36675   1.00
H2       0.66778    0.67224    0.37576   1.00
C5       0.76852    0.68736    0.36762   1.00
H2       0.74285    0.65130    0.35484   1.00
H2       0.78121    0.66104    0.37965   1.00
O_3      0.69619    0.73970    0.48079   1.00
C4       0.69567    0.83013    0.45159   1.00
C3c      0.68634    0.79738    0.43281   1.00
H1       0.63928    0.75063    0.42976   1.00
C3d      0.75698    0.89152    0.45515   1.00
C3       0.73756    0.82361    0.41783   1.00
O2       0.72162    0.79348    0.39897   1.00
C3       0.80859    0.91707    0.44041   1.00
H1       0.85567    0.96299    0.44410   1.00
C2       0.80030    0.88419    0.42142   1.00
C5       0.74498    0.77344    0.49621   1.00
H2       0.72182    0.76075    0.51165   1.00
H2       0.77110    0.82991    0.49425   1.00
C5       0.79744    0.75050    0.49474   1.00
H2       0.81921    0.76143    0.47913   1.00
H2       0.77091    0.69416    0.49690   1.00
C5       0.85398    0.78676    0.51057   1.00
H2       0.83255    0.77645    0.52619   1.00
H2       0.88206    0.84284    0.50799   1.00
H2       0.89102    0.76823    0.50956   1.00
C5       0.74459    0.96788    0.47462   1.00
C5       0.74045    0.74271    0.39784   1.00
H2       0.68824    0.93996    0.47275   1.00
H2       0.76763    1.00791    0.46264   1.00
H2       0.71153    0.70204    0.40931   1.00
H2       0.79602    0.76342    0.40082   1.00
H2       0.81675    0.73033    0.36130   1.00
H2       0.66559    0.99973    0.50231   1.00
H2       0.72594    1.07304    0.48753   1.00
C2       0.54505    0.74888    0.49859   1.00
C3       0.54167    0.79126    0.48348   1.00
O2       0.50159    0.82064    0.48628   1.00
C3       0.59694    0.73160    0.49717   1.00
H1       0.59984    0.69785    0.50820   1.00
C3a      0.59059    0.81658    0.46778   1.00
H1       0.58966    0.85206    0.45699   1.00
C3b      0.64680    0.75860    0.48191   1.00
C4       0.64401    0.80157    0.46708   1.00
O_3      0.77076    0.92296    0.47393   1.00
C5       0.44047    0.78483    0.47514   1.00
H2       0.45085    0.78507    0.45857   1.00
C5       0.39964    0.82105    0.47875   1.00
H2       0.41019    0.73091    0.48036   1.00
H2       0.42072    0.86695    0.46884   1.00
H2       0.40917    0.83994    0.49469   1.00
C5       0.32260    0.77464    0.47492   1.00
H2       0.31436    0.75199    0.45951   1.00
H2       0.29552    0.80420    0.47603   1.00
H2       0.29894    0.73300    0.48647   1.00
C5       0.76202    1.00212    0.49535   1.00
H2       0.81778    1.03920    0.49583   1.00
H2       0.75160    0.96249    0.50702   1.00
C5       0.72070    1.03765    0.50001   1.00
H2       0.73971    1.06790    0.51420   1.00
C5       0.22793    0.13895    0.43185   1.00
H2       0.24165    0.13657    0.41582   1.00
H2       0.27692    0.16514    0.44028   1.00
C5       0.19077    0.18054    0.43318   1.00
H2       0.22803    0.23626    0.43319   1.00
H2       0.15969    0.16709    0.44729   1.00
O_3      0.12174    -0.15046   0.49151   1.00
C4       0.17072    -0.13399   0.45147   1.00
C3c      0.20015    -0.06416   0.44715   1.00
H1       0.24450    -0.02757   0.45554   1.00
C3d      0.11355    -0.18090   0.44017   1.00
C3       0.17255    -0.04035   0.43224   1.00
O2       0.20885    0.02766    0.42715   1.00
C3       0.08517    -0.15727   0.42558   1.00
H1       0.03988    -0.19498   0.41780   1.00
C2       0.11384    -0.08677   0.42117   1.00
C5       0.05820    -0.21056   0.49411   1.00
H2       0.05940    -0.24327   0.50655   1.00
H2       0.04194    -0.24142   0.47989   1.00
C5       0.00608    -0.18952   0.49948   1.00
H2       0.00625    -0.15527   0.48731   1.00
H2       0.02249    -0.15930   0.51379   1.00
C5       -0.06528   -0.25203   0.50187   1.00
H2       -0.06571   -0.28669   0.51389   1.00
H2       -0.08269   -0.28093   0.48738   1.00
H2       -0.10239   -0.23571   0.50623   1.00
C5       0.10966    -0.28202   0.43422   1.00
C5       0.18583    0.06466    0.43879   1.00
H2       0.16383    -0.26119   0.43873   1.00
H2       0.10738    -0.27620   0.41748   1.00
H2       0.19445    0.06036    0.45526   1.00
H2       0.13016    0.04566    0.43668   1.00
H2       0.15691    0.17077    0.41976   1.00
H2       0.15497    -0.37804   0.44296   1.00
H2       0.12381    -0.38523   0.41715   1.00
C2       0.24760    -0.20896   0.49816   1.00
C3       0.27547    -0.19766   0.47844   1.00
O2       0.31453    -0.22586   0.47259   1.00
C3       0.19666    -0.19178   0.50221   1.00
H1       0.17556    -0.19816   0.51729   1.00
C3a      0.25092    -0.17148   0.46325   1.00
H1       0.27000    -0.16679   0.44796   1.00
C3b      0.17083    -0.16781   0.48692   1.00
C4       0.19783    -0.15760   0.46725   1.00
O_3      0.07961    -0.24967   0.44487   1.00
C5       0.38437    -0.17601   0.47300   1.00
H2       0.39562    -0.13274   0.46258   1.00
C5       0.42394    -0.21084   0.46603   1.00
H2       0.40078    -0.15549   0.48863   1.00
H2       0.42161    -0.21431   0.44918   1.00
H2       0.39633    -0.26418   0.47183   1.00
C5       0.49864    -0.17368   0.47335   1.00
H2       0.52386    -0.11918   0.46879   1.00
H2       0.52720    -0.19707   0.46659   1.00
H2       0.50189    -0.17733   0.49018   1.00
C5       0.06999    -0.35751   0.43955   1.00
H2       0.01930    -0.38075   0.43197   1.00
H2       0.06038    -0.36226   0.45621   1.00
C5       0.10861    -0.39463   0.43340   1.00
H2       0.07534    -0.45048   0.43556   1.00
C5       0.31151    0.06880    0.13288   1.00
H2       0.29473    0.10414    0.13863   1.00
H2       0.36803    0.09705    0.13400   1.00
C5       0.28094    0.00414    0.14633   1.00
H2       0.31161    0.01351    0.16039   1.00
H2       0.27978    -0.03887   0.13781   1.00
O_3      0.33398    0.04263    0.02831   1.00
C4       0.30413    0.13439    0.04835   1.00
C3c      0.31997    0.13272    0.06886   1.00
H1       0.37216    0.15027    0.07325   1.00
C3d      0.23596    0.11220    0.04298   1.00
C3       0.26904    0.10767    0.08392   1.00
O2       0.28946    0.11536    0.10388   1.00
C3       0.18494    0.08602    0.05789   1.00
H1       0.13305    0.06735    0.05295   1.00
C2       0.19997    0.08328    0.07867   1.00
C5       0.28550    0.00420    0.01324   1.00
H2       0.30957    0.00864    -0.00185   1.00
H2       0.24688    0.02076    0.01159   1.00
C5       0.24980    -0.07009   0.01976   1.00
H2       0.22738    -0.07425   0.03510   1.00
H2       0.28873    -0.08625   0.02118   1.00
C5       0.19431    -0.11538   0.00451   1.00
H2       0.21627    -0.11111   -0.01087   1.00
H2       0.15416    -0.10081   0.00361   1.00
H2       0.16981    -0.16966   0.00930   1.00
C5       0.22447    0.17102    0.01664   1.00
C5       0.28957    0.05612    0.11060   1.00
H2       0.27855    0.21253    0.01768   1.00
H2       0.19246    0.18543    0.02595   1.00
H2       0.32650    0.04804    0.10151   1.00
H2       0.23843    0.00910    0.10909   1.00
H2       0.22811    -0.01088   0.15137   1.00
H2       0.28138    0.26246    -0.01749   1.00
H2       0.20868    0.26378    -0.00630   1.00
C2       0.45543    0.20274    0.00156   1.00
C3       0.44385    0.25021    0.01215   1.00
O2       0.46766    0.31494    0.00450   1.00
C3       0.41848    0.13344    0.00749   1.00
H1       0.42743    0.09612    0.00004   1.00
C3a      0.39500    0.22748    0.02786   1.00
H1       0.38394    0.26381    0.03504   1.00
C3b      0.36838    0.11067    0.02268   1.00
C4       0.35617    0.15775    0.03298   1.00
O_3      0.21689    0.10796    0.02285   1.00
C5       0.52716    0.36222    0.01491   1.00
H2       0.51716    0.36295    0.03147   1.00
C5       0.54957    0.43252    0.00582   1.00
H2       0.56868    0.34985    0.01294   1.00
H2       0.51754    0.45214    0.01249   1.00
H2       0.53752    0.42524    -0.01069   1.00
C5       0.62589    0.48377    0.00920   1.00
H2       0.63809    0.48633    0.02562   1.00
H2       0.63894    0.53561    0.00392   1.00
H2       0.65886    0.46911    0.00042   1.00
C5       0.20177    0.16355    -0.00540   1.00
H2       0.14525    0.13081    -0.00595   1.00
H2       0.22339    0.13584    -0.01371   1.00
C5       0.22488    0.23309    -0.01547   1.00
H2       0.20151    0.22549    -0.03076   1.00
C5       0.72626    0.70783    0.12762   1.00
H2       0.77253    0.71616    0.13588   1.00
H2       0.68952    0.65222    0.12856   1.00
C5       0.69661    0.74856    0.13807   1.00
H2       0.66531    0.72047    0.15149   1.00
H2       0.66425    0.75747    0.12720   1.00
O_3      0.72718    0.68593    0.02233   1.00
C4       0.83019    0.69574    0.04839   1.00
C3c      0.80227    0.68340    0.06799   1.00
H1       0.75936    0.63397    0.07168   1.00
C3d      0.88671    0.76019    0.04398   1.00
C3       0.82836    0.73453    0.08300   1.00
O2       0.80392    0.71627    0.10246   1.00
C3       0.91198    0.81161    0.05877   1.00
H1       0.95383    0.86096    0.05447   1.00
C2       0.88387    0.80023    0.07861   1.00
C5       0.75277    0.73545    0.00678   1.00
H2       0.73763    0.71220    -0.00860   1.00
H2       0.80957    0.76634    0.00736   1.00
C5       0.72342    0.78216    0.01000   1.00
H2       0.73691    0.80390    0.02559   1.00
H2       0.66674    0.75090    0.00921   1.00
C5       0.75067    0.83924    -0.00589   1.00
H2       0.73779    0.81787    -0.02150   1.00
H2       0.80702    0.87192    -0.00465   1.00
H2       0.72750    0.87195    -0.00357   1.00
C5       0.96246    0.75703    0.02183   1.00
C5       0.74904    0.72826    0.10562   1.00
H2       0.93996    0.70098    0.02355   1.00
H2       1.00524    0.78323    0.03287   1.00
H2       0.70639    0.69648    0.09501   1.00
H2       0.76378    0.78276    0.10302   1.00
H2       0.73809    0.79871    0.14384   1.00
H2       0.99660    0.68628    -0.00828   1.00
H2       1.07092    0.75126    0.00515   1.00
C2       0.74831    0.54492    0.00145   1.00
C3       0.79734    0.54659    0.01503   1.00
O2       0.83168    0.51224    0.01051   1.00
C3       0.72493    0.59172    0.00442   1.00
H1       0.68615    0.59060    -0.00539   1.00
C3a      0.82293    0.59546    0.03074   1.00
H1       0.86324    0.59862    0.04028   1.00
C3b      0.75207    0.64166    0.01965   1.00
C4       0.80156    0.64394    0.03294   1.00
O_3      0.91277    0.77657    0.02450   1.00
C5       0.80407    0.45087    0.02163   1.00
H2       0.80789    0.46073    0.03831   1.00
C5       0.84544    0.41657    0.01606   1.00
H2       0.74947    0.41635    0.01764   1.00
H2       0.89399    0.44158    0.02481   1.00
H2       0.85963    0.42757    -0.00025   1.00
C5       0.80640    0.33903    0.01995   1.00
H2       0.78797    0.32883    0.03589   1.00
H2       0.83999    0.31692    0.01736   1.00
H2       0.76213    0.31208    0.00939   1.00
C5       0.99050    0.77714    0.00040   1.00
H2       1.02307    0.83367    -0.00026   1.00
H2       0.94686    0.76284    -0.01010   1.00
C5       1.03091    0.74230    -0.00620   1.00
H2       1.05645    0.76347    -0.02097   1.00
C5       0.13888    0.22749    0.06804   1.00
H2       0.13663    0.24132    0.08406   1.00
H2       0.16511    0.27643    0.05958   1.00
C5       0.18033    0.19019    0.06671   1.00
H2       0.23608    0.22736    0.06666   1.00
H2       0.16676    0.15903    0.05261   1.00
O_3      -0.15078   0.12150    0.00851   1.00
C4       -0.13399   0.17072    0.04853   1.00
C3c      -0.06414   0.20006    0.05282   1.00
H1       -0.02754   0.24432    0.04440   1.00
C3d      -0.18091   0.11366    0.05987   1.00
C3       -0.04034   0.17245    0.06772   1.00
O2       0.02771    0.20867    0.07278   1.00
C3       -0.15728   0.08527    0.07445   1.00
H1       -0.19501   0.04006    0.08226   1.00
C2       -0.08677   0.11384    0.07883   1.00
C5       -0.21097   0.05801    0.00596   1.00
H2       -0.24371   0.05922    -0.00648   1.00
H2       -0.24175   0.04188    0.02019   1.00
C5       -0.19009   0.00575    0.00059   1.00
H2       -0.15582   0.00592    0.01274   1.00
H2       -0.15996   0.02204    -0.01373   1.00
C5       -0.25271   -0.06555   -0.00175   1.00
H2       -0.28741   -0.06597   -0.01376   1.00
H2       -0.28153   -0.08284   0.01276   1.00
H2       -0.23652   -0.10277   -0.00611   1.00
C5       -0.28189   0.11002    0.06585   1.00
C5       0.06455    0.18548    0.06114   1.00
H2       -0.26099   0.16418    0.06132   1.00
H2       -0.27598   0.10782    0.08259   1.00
H2       0.06018    0.19402    0.04467   1.00
H2       0.04546    0.12979    0.06327   1.00
H2       0.17058    0.15639    0.08014   1.00
H2       -0.37775   0.15554    0.05713   1.00
H2       -0.38485   0.12451    0.08295   1.00
C2       -0.20897   0.24760    0.00184   1.00
C3       -0.19751   0.27558    0.02155   1.00
O2       -0.22555   0.31478    0.02740   1.00
C3       -0.19194   0.19654    -0.00220   1.00
H1       -0.19845   0.17535    -0.01727   1.00
C3a      -0.17132   0.25104    0.03673   1.00
H1       -0.16651   0.27020    0.05202   1.00
C3b      -0.16798   0.17071    0.01309   1.00
C4       -0.15760   0.19782    0.03275   1.00
O_3      -0.24971   0.07981    0.05520   1.00
C5       -0.17561   0.38458    0.02695   1.00
H2       -0.13230   0.39581    0.03735   1.00
C5       -0.21027   0.42432    0.03392   1.00
H2       -0.15516   0.40088    0.01131   1.00
H2       -0.21364   0.42209    0.05077   1.00
H2       -0.26364   0.39676    0.02814   1.00
C5       -0.17302   0.49897    0.02657   1.00
H2       -0.11850   0.52413    0.03110   1.00
H2       -0.19628   0.52766    0.03332   1.00
H2       -0.17676   0.50215    0.00973   1.00
C5       -0.35741   0.07045    0.06056   1.00
H2       -0.38070   0.01979    0.06816   1.00
H2       -0.36228   0.06074    0.04391   1.00
C5       -0.39437   0.10923    0.06671   1.00
H2       -0.45025   0.07603    0.06458   1.00
C5       0.65845    1.32265    0.87624   1.00
H2       0.62032    1.32557    0.88614   1.00
H2       0.64159    1.32275    0.86043   1.00
C5       0.72963    1.38565    0.87999   1.00
H2       0.73550    1.43065    0.87142   1.00
H2       0.77018    1.37456    0.87514   1.00
O_3      0.62484    1.00333    0.86045   1.00
C4       0.53222    1.02886    0.88178   1.00
C3c      0.55071    1.09658    0.87729   1.00
H1       0.54648    1.11055    0.86191   1.00
C3d      0.53718    1.01153    0.90198   1.00
C3       0.57572    1.14736    0.89241   1.00
O2       0.58485    1.21039    0.88741   1.00
C3       0.56330    1.06222    0.91699   1.00
H1       0.56846    1.04700    0.93212   1.00
C2       0.58294    1.13110    0.91268   1.00
C5       0.64554    0.96378    0.87171   1.00
H2       0.63658    0.91724    0.86334   1.00
H2       0.61792    0.94747    0.88648   1.00
C5       0.72150    1.00774    0.87576   1.00
H2       0.73069    1.05515    0.88362   1.00
H2       0.74861    1.02319    0.86091   1.00
C5       0.74787    0.96929    0.88861   1.00
H2       0.73843    0.92164    0.88091   1.00
H2       0.72252    0.95591    0.90371   1.00
H2       0.80374    1.00168    0.89103   1.00
C5       0.45450    0.90449    0.91109   1.00
C5       0.65286    1.25390    0.88108   1.00
H2       0.42279    0.89910    0.89757   1.00
H2       0.43770    0.92463    0.92395   1.00
H2       0.66412    1.23272    0.86728   1.00
H2       0.69087    1.26026    0.89297   1.00
H2       0.73704    1.40061    0.89636   1.00
H2       0.34726    0.76913    0.90042   1.00
H2       0.33650    0.79500    0.92562   1.00
C2       0.46312    0.87389    0.83610   1.00
C3       0.41622    0.88828    0.84584   1.00
O2       0.34712    0.84279    0.84467   1.00
C3       0.53305    0.91395    0.84109   1.00
H1       0.57044    0.90538    0.83352   1.00
C3a      0.43962    0.94049    0.86055   1.00
H1       0.40264    0.94828    0.86870   1.00
C3b      0.55588    0.96435    0.85619   1.00
C4       0.50907    0.97790    0.86608   1.00
O_3      0.52455    0.94682    0.90691   1.00
C5       0.31643    0.86565    0.83045   1.00
H2       0.32396    0.91668    0.83474   1.00
C5       0.24010    0.81332    0.83031   1.00
H2       0.33788    0.86926    0.81499   1.00
H2       0.21601    0.82315    0.84362   1.00
H2       0.23465    0.76213    0.83271   1.00
C5       0.20446    0.81452    0.81051   1.00
H2       0.21497    0.86721    0.80752   1.00
H2       0.14830    0.78001    0.81164   1.00
H2       0.22209    0.79629    0.79732   1.00
C5       0.44329    0.83447    0.91678   1.00
H2       0.46533    0.83783    0.93213   1.00
H2       0.47268    0.82116    0.90598   1.00
C5       0.36732    0.77940    0.91627   1.00
H2       0.36042    0.73077    0.92251   1.00
C5       -0.03395   0.59797    0.96294   1.00
H2       -0.08106   0.60066    0.96050   1.00
H2       0.00915    0.65051    0.96043   1.00
C5       -0.03282   0.57475    0.98494   1.00
H2       -0.01452   0.61842    0.99566   1.00
H2       0.00136    0.55271    0.98597   1.00
O_3      0.08078    0.47983    0.88327   1.00
C4       -0.02965   0.50387    0.88156   1.00
C3c      -0.02477   0.54121    0.89911   1.00
H1       0.01861    0.59176    0.90112   1.00
C3d      -0.08707   0.43847    0.87909   1.00
C3       -0.07487   0.51383    0.91440   1.00
O2       -0.07094   0.55635    0.92990   1.00
C3       -0.13639   0.41056    0.89446   1.00
H1       -0.17829   0.35928    0.89222   1.00
C2       -0.13187   0.44732    0.91240   1.00
C5       0.06326    0.41383    0.87656   1.00
H2       0.09749    0.41509    0.86421   1.00
H2       0.00969    0.38568    0.87087   1.00
C5       0.07003    0.37566    0.89454   1.00
H2       0.03727    0.37606    0.90709   1.00
H2       0.12383    0.40387    0.89997   1.00
C5       0.04949    0.30226    0.88873   1.00
H2       0.08167    0.30148    0.87611   1.00
H2       -0.00493   0.27335    0.88398   1.00
H2       0.05620    0.27565    0.90194   1.00
C5       -0.12249   0.41143    0.84629   1.00
C5       -0.03456   0.55015    0.94642   1.00
H2       -0.09123   0.46524    0.84117   1.00
H2       -0.17467   0.40147    0.85016   1.00
H2       0.01862    0.56579    0.94171   1.00
H2       -0.05841   0.49671    0.95227   1.00
H2       -0.08511   0.53597    0.99013   1.00
H2       -0.09844   0.43628    0.80329   1.00
H2       -0.18848   0.39359    0.80980   1.00
C2       0.12477    0.58120    0.83561   1.00
C3       0.07182    0.59693    0.83503   1.00
O2       0.05909    0.62204    0.81752   1.00
C3       0.12709    0.54255    0.85214   1.00
H1       0.16796    0.53115    0.85331   1.00
C3a      0.02200    0.57255    0.85048   1.00
H1       -0.02035   0.58172    0.84921   1.00
C3b      0.07627    0.51654    0.86713   1.00
C4       0.02308    0.53133    0.86637   1.00
O_3      -0.09175   0.39764    0.86284   1.00
C5       0.08605    0.69309    0.81915   1.00
H2       0.06302    0.70591    0.83219   1.00
C5       0.06890    0.71670    0.79937   1.00
H2       0.14245    0.72007    0.82119   1.00
H2       0.01491    0.70475    0.80012   1.00
H2       0.07171    0.68508    0.78687   1.00
C5       0.11678    0.79319    0.79508   1.00
H2       0.11746    0.82365    0.80839   1.00
H2       0.09927    0.80964    0.78154   1.00
H2       0.16984    0.80450    0.79172   1.00
C5       -0.12771   0.36460    0.82897   1.00
H2       -0.16810   0.31165    0.83277   1.00
H2       -0.07869   0.36440    0.82805   1.00
C5       -0.14289   0.38736    0.80856   1.00
H2       -0.15337   0.34832    0.79675   1.00
C5       0.42912    0.40938    0.96676   1.00
H2       0.41790    0.35579    0.96579   1.00
H2       0.37906    0.40703    0.96556   1.00
C5       0.46304    0.44018    0.98741   1.00
H2       0.42398    0.42463    0.99959   1.00
H2       0.49218    0.49684    0.98643   1.00
O_3      0.53945    0.60637    0.87904   1.00
C4       0.49599    0.46640    0.88158   1.00
C3c      0.46439    0.44496    0.90059   1.00
H1       0.41834    0.44648    0.90378   1.00
C3d      0.55541    0.46308    0.87763   1.00
C3       0.49194    0.42225    0.91584   1.00
O2       0.45385    0.39433    0.93310   1.00
C3       0.58369    0.44173    0.89291   1.00
H1       0.63064    0.44234    0.88943   1.00
C2       0.55281    0.42058    0.91230   1.00
C5       0.60397    0.64442    0.86975   1.00
H2       0.60287    0.67487    0.85662   1.00
H2       0.62314    0.61042    0.86428   1.00
C5       0.65297    0.69309    0.88555   1.00
H2       0.65263    0.66281    0.89891   1.00
H2       0.63368    0.72719    0.89076   1.00
C5       0.72525    0.73494    0.87688   1.00
H2       0.72589    0.76495    0.86344   1.00
H2       0.74547    0.70110    0.87232   1.00
H2       0.76001    0.77127    0.88851   1.00
C5       0.56501    0.43667    0.84486   1.00
C5       0.47293    0.44520    0.94814   1.00
H2       0.51068    0.41955    0.84148   1.00
H2       0.56904    0.39158    0.84968   1.00
H2       0.46269    0.48593    0.94273   1.00
H2       0.52834    0.47020    0.95207   1.00
H2       0.49817    0.42142    0.99217   1.00
H2       0.52462    0.42292    0.80279   1.00
H2       0.55855    0.36797    0.80973   1.00
C2       0.41903    0.54316    0.83543   1.00
C3       0.39383    0.47236    0.83709   1.00
O2       0.35795    0.42927    0.82129   1.00
C3       0.46724    0.58696    0.84990   1.00
H1       0.48620    0.64121    0.84936   1.00
C3a      0.41832    0.44733    0.85262   1.00
H1       0.40145    0.39345    0.85299   1.00
C3b      0.49311    0.56214    0.86493   1.00
C4       0.46880    0.49186    0.86637   1.00
O_3      0.59129    0.48839    0.85974   1.00
C5       0.28744    0.39471    0.82552   1.00
H2       0.27563    0.36380    0.83969   1.00
C5       0.25154    0.34738    0.80755   1.00
H2       0.26846    0.43135    0.82726   1.00
H2       0.25610    0.30090    0.80923   1.00
H2       0.28036    0.37386    0.79359   1.00
C5       0.17605    0.32786    0.80559   1.00
H2       0.14935    0.30645    0.82019   1.00
H2       0.15027    0.28905    0.79346   1.00
H2       0.17095    0.37290    0.80132   1.00
C5       0.60673    0.46639    0.82563   1.00
H2       0.65819    0.47250    0.82801   1.00
H2       0.61422    0.51845    0.82334   1.00
C5       0.57177    0.42167    0.80693   1.00
H2       0.60668    0.44094    0.79367   1.00
C5       0.65144    0.39502    0.28827   1.00
H2       0.66722    0.35924    0.28222   1.00
H2       0.65525    0.39334    0.30503   1.00
C5       0.70043    0.46779    0.28028   1.00
H2       0.74810    0.49292    0.28944   1.00
H2       0.67524    0.49920    0.28098   1.00
O_3      0.30371    0.27793    0.29643   1.00
C4       0.36240    0.19888    0.28494   1.00
C3c      0.43196    0.23816    0.28975   1.00
H1       0.44745    0.25042    0.30541   1.00
C3d      0.34336    0.18266    0.26446   1.00
C3       0.48240    0.26299    0.27453   1.00
O2       0.54955    0.29388    0.28053   1.00
C3       0.39337    0.20840    0.24925   1.00
H1       0.37617    0.19664    0.23371   1.00
C2       0.46390    0.24882    0.25383   1.00
C5       0.25426    0.27324    0.28247   1.00
H2       0.20427    0.25738    0.28988   1.00
H2       0.24582    0.23595    0.27018   1.00
C5       0.28056    0.34339    0.27317   1.00
H2       0.33141    0.36006    0.26626   1.00
H2       0.28819    0.38006    0.28555   1.00
C5       0.23075    0.34230    0.25720   1.00
H2       0.17973    0.32523    0.26397   1.00
H2       0.22492    0.30748    0.24448   1.00
H2       0.25011    0.39431    0.25090   1.00
C5       0.24988    0.07761    0.25969   1.00
C5       0.57683    0.36517    0.28193   1.00
H2       0.25230    0.06099    0.27539   1.00
H2       0.27866    0.06178    0.24942   1.00
H2       0.54848    0.37704    0.29356   1.00
H2       0.57341    0.38817    0.26727   1.00
H2       0.71636    0.46657    0.26430   1.00
H2       0.13047    -0.04136   0.27529   1.00
H2       0.16492    -0.05953   0.25277   1.00
C2       0.20626    0.12840    0.33029   1.00
C3       0.23752    0.08960    0.32554   1.00
O2       0.20768    0.02221    0.33140   1.00
C3       0.23013    0.19194    0.32049   1.00
H1       0.20848    0.22366    0.32417   1.00
C3a      0.29001    0.11393    0.31090   1.00
H1       0.31073    0.08185    0.30659   1.00
C3b      0.28082    0.21497    0.30548   1.00
C4       0.31112    0.17586    0.30054   1.00
O_3      0.27541    0.14857    0.25880   1.00
C5       0.24127    0.01593    0.34858   1.00
H2       0.29634    0.03505    0.34538   1.00
C5       0.20610    -0.05999   0.35389   1.00
H2       0.23735    0.04486    0.36169   1.00
H2       0.22563    -0.08512   0.34351   1.00
H2       0.15082    -0.08237   0.35044   1.00
C5       0.21650    -0.07305   0.37621   1.00
H2       0.27185    -0.04586   0.37982   1.00
H2       0.19519    -0.12853   0.37905   1.00
H2       0.18957    -0.05573   0.38678   1.00
C5       0.17563    0.04238    0.25299   1.00
H2       0.17406    0.04953    0.23633   1.00
H2       0.15083    0.06869    0.26036   1.00
C5       0.13726    -0.03388   0.25854   1.00
H2       0.08563    -0.05931   0.25160   1.00
C5       0.59681    0.36907    0.28395   1.00
H2       0.57470    0.37877    0.27019   1.00
H2       0.57188    0.37866    0.29705   1.00
C5       0.58051    0.29405    0.28397   1.00
H2       0.52790    0.25952    0.28965   1.00
H2       0.61748    0.28858    0.29378   1.00
O_3      0.91331    0.62786    0.31697   1.00
C4       0.83699    0.63797    0.28483   1.00
C3c      0.77151    0.58060    0.28649   1.00
H1       0.74052    0.57488    0.29963   1.00
C3d      0.87617    0.64493    0.26745   1.00
C3       0.74538    0.52945    0.27149   1.00
O2       0.67803    0.47921    0.27293   1.00
C3       0.85081    0.59346    0.25267   1.00
H1       0.88365    0.59985    0.23996   1.00
C2       0.78500    0.53474    0.25422   1.00
C5       0.98088    0.64787    0.31129   1.00
H2       1.01918    0.68840    0.32140   1.00
H2       0.99144    0.66725    0.29538   1.00
C5       0.98926    0.58551    0.31285   1.00
H2       0.94974    0.54434    0.30319   1.00
H2       0.97923    0.56698    0.32883   1.00
C5       1.06092    0.60224    0.30623   1.00
H2       1.10066    0.64365    0.31572   1.00
H2       1.07011    0.61848    0.29006   1.00
H2       1.06657    0.55646    0.30789   1.00
C5       0.94353    0.75490    0.25701   1.00
C5       0.67284    0.42238    0.28345   1.00
H2       0.91604    0.77364    0.26666   1.00
H2       0.91988    0.74298    0.24161   1.00
H2       0.69297    0.43735    0.29919   1.00
H2       0.70238    0.40094    0.27596   1.00
H2       0.58256    0.27638    0.26828   1.00
H2       1.00870    0.89978    0.26450   1.00
H2       0.99306    0.87859    0.23771   1.00
C2       0.92227    0.79132    0.33099   1.00
C3       0.88114    0.79555    0.31561   1.00
O2       0.88165    0.85592    0.31220   1.00
C3       0.93147    0.73395    0.33125   1.00
H1       0.96120    0.72832    0.34312   1.00
C3a      0.85195    0.74400    0.30072   1.00
H1       0.82384    0.74994    0.28840   1.00
C3b      0.90418    0.68389    0.31605   1.00
C4       0.86419    0.68870    0.30060   1.00
O_3      0.94282    0.69775    0.26581   1.00
C5       0.82306    0.85295    0.32070   1.00
H2       0.77545    0.81041    0.31400   1.00
C5       0.82686    0.92096    0.31599   1.00
H2       0.82162    0.84565    0.33746   1.00
H2       0.80982    0.91947    0.30006   1.00
H2       0.88158    0.96140    0.31660   1.00
C5       0.78417    0.93750    0.33071   1.00
H2       0.73089    0.89419    0.33110   1.00
H2       0.78357    0.98424    0.32579   1.00
H2       0.80604    0.94774    0.34637   1.00
C5       1.01769    0.81108    0.25516   1.00
H2       1.04208    0.79705    0.24285   1.00
H2       1.04437    0.81270    0.26953   1.00
C5       1.02446    0.88112    0.25102   1.00
H2       1.07847    0.91931    0.24767   1.00
C5       0.76088    0.39638    0.28521   1.00
H2       0.79393    0.42092    0.27181   1.00
H2       0.79351    0.42079    0.29869   1.00
C5       0.70016    0.40966    0.28489   1.00
H2       0.71559    0.46120    0.29102   1.00
H2       0.65738    0.37057    0.29417   1.00
O_3      0.71255    0.08108    0.31586   1.00
C4       0.80101    0.16304    0.28483   1.00
C3c      0.80613    0.22715    0.28695   1.00
H1       0.82904    0.25707    0.30045   1.00
C3d      0.77187    0.12531    0.26700   1.00
C3       0.78110    0.25323    0.27194   1.00
O2       0.79535    0.31959    0.27391   1.00
C3       0.74572    0.15055    0.25219   1.00
H1       0.72164    0.11873    0.23910   1.00
C2       0.74981    0.21496    0.25419   1.00
C5       0.66768    0.01361    0.30944   1.00
H2       0.67055    -0.02481   0.31932   1.00
H2       0.67898    0.00547    0.29354   1.00
C5       0.59563    0.00209    0.31043   1.00
H2       0.59325    0.04169    0.30100   1.00
H2       0.58469    0.00972    0.32640   1.00
C5       0.54355    -0.06957   0.30298   1.00
H2       0.54598    -0.10937   0.31223   1.00
H2       0.55300    -0.07643   0.28681   1.00
H2       0.49108    -0.07757   0.30423   1.00
C5       0.81963    0.06261    0.25646   1.00
C5       0.74118    0.32118    0.28407   1.00
H2       0.86450    0.09043    0.26661   1.00
H2       0.83229    0.08795    0.24131   1.00
H2       0.73504    0.29954    0.29964   1.00
H2       0.69130    0.29090    0.27605   1.00
H2       0.68190    0.40854    0.26906   1.00
H2       0.90314    0.00169    0.26413   1.00
H2       0.89981    0.01972    0.23742   1.00
C2       0.86916    0.07765    0.33094   1.00
C3       0.91537    0.12156    0.31615   1.00
O2       0.97691    0.12411    0.31317   1.00
C3       0.80155    0.06566    0.33066   1.00
H1       0.76543    0.03373    0.34208   1.00
C3a      0.89290    0.15073    0.30129   1.00
H1       0.92781    0.18108    0.28939   1.00
C3b      0.77878    0.09299    0.31547   1.00
C4       0.82449    0.13578    0.30060   1.00
O_3      0.76095    0.05980    0.26485   1.00
C5       1.03009    0.18285    0.32243   1.00
H2       1.03387    0.23031    0.31605   1.00
C5       1.09638    0.18253    0.31816   1.00
H2       1.02214    0.18211    0.33913   1.00
H2       1.11330    0.20164    0.30246   1.00
H2       1.08421    0.12840    0.31834   1.00
C5       1.15327    0.22521    0.33355   1.00
H2       1.16098    0.27762    0.33434   1.00
H2       1.20215    0.22846    0.32899   1.00
H2       1.14060    0.20158    0.34899   1.00
C5       0.80483    -0.01040   0.25404   1.00
H2       0.76811    -0.03454   0.24131   1.00
H2       0.77882    -0.03917   0.26805   1.00
C5       0.87024    -0.01372   0.25032   1.00
H2       0.85691    -0.06678   0.24653   1.00
C5       0.84536    0.65627    0.69823   1.00
H2       0.86563    0.62063    0.69800   1.00
H2       0.89069    0.70833    0.69865   1.00
C5       0.80325    0.64652    0.67876   1.00
H2       0.83724    0.67454    0.66578   1.00
H2       0.76705    0.66558    0.68126   1.00
O_3      0.73677    0.71511    0.79092   1.00
C4       0.80078    0.63717    0.78507   1.00
C3c      0.82719    0.65169    0.76527   1.00
H1       0.86691    0.70274    0.76147   1.00
C3d      0.74973    0.57009    0.78979   1.00
C3       0.80234    0.60123    0.75006   1.00
O2       0.83626    0.61704    0.73179   1.00
C3       0.72397    0.52005    0.77458   1.00
H1       0.68314    0.46994    0.77874   1.00
C2       0.74958    0.53405    0.75443   1.00
C5       0.67506    0.67955    0.80184   1.00
H2       0.67429    0.70827    0.81547   1.00
H2       0.66600    0.62866    0.80690   1.00
C5       0.61765    0.66957    0.78776   1.00
H2       0.61960    0.64256    0.77387   1.00
H2       0.62688    0.72069    0.78295   1.00
C5       0.54815    0.62900    0.79824   1.00
H2       0.54601    0.65544    0.81220   1.00
H2       0.53784    0.57707    0.80241   1.00
H2       0.50697    0.62352    0.78787   1.00
C5       0.75595    0.53705    0.82203   1.00
C5       0.80528    0.64137    0.71808   1.00
H2       0.80848    0.58061    0.82428   1.00
H2       0.75933    0.49234    0.81642   1.00
H2       0.80842    0.68892    0.72410   1.00
H2       0.75015    0.60366    0.71546   1.00
H2       0.77407    0.59167    0.67417   1.00
H2       0.80706    0.56960    0.86305   1.00
H2       0.78504    0.48371    0.85557   1.00
C2       0.86876    0.79009    0.83136   1.00
C3       0.90389    0.75414    0.82798   1.00
O2       0.94857    0.75492    0.84234   1.00
C3       0.81335    0.77665    0.81850   1.00
H1       0.78653    0.80456    0.82036   1.00
C3a      0.88211    0.70492    0.81239   1.00
H1       0.90707    0.67508    0.81074   1.00
C3b      0.79047    0.72613    0.80344   1.00
C4       0.82478    0.68969    0.80030   1.00
O_3      0.71846    0.55437    0.80860   1.00
C5       1.01648    0.80021    0.83645   1.00
H2       1.02850    0.78501    0.82158   1.00
C5       1.06264    0.79729    0.85290   1.00
H2       1.02600    0.85336    0.83515   1.00
H2       1.06674    0.75085    0.85039   1.00
H2       1.03624    0.79014    0.86772   1.00
C5       1.13401    0.86153    0.85338   1.00
H2       1.15738    0.87091    0.83805   1.00
H2       1.16782    0.85511    0.86433   1.00
H2       1.13143    0.90734    0.85843   1.00
C5       0.71906    0.51899    0.84234   1.00
H2       0.67143    0.46875    0.84084   1.00
H2       0.70337    0.55738    0.84574   1.00
C5       0.76411    0.51739    0.85959   1.00
H2       0.73343    0.49721    0.87366   1.00
C5       0.59304    0.43401    0.77331   1.00
H2       0.63135    0.41707    0.77303   1.00
H2       0.59301    0.45117    0.78909   1.00
C5       0.61454    0.49384    0.75827   1.00
H2       0.65351    0.54284    0.76520   1.00
H2       0.56935    0.49808    0.75386   1.00
O_3      0.25138    0.18492    0.78303   1.00
C4       0.36276    0.16241    0.78503   1.00
C3c      0.42098    0.22720    0.78693   1.00
H1       0.42756    0.25749    0.80032   1.00
C3d      0.35564    0.12337    0.76761   1.00
C3       0.47093    0.25431    0.77159   1.00
O2       0.53029    0.31424    0.77560   1.00
C3       0.40463    0.15075    0.75213   1.00
H1       0.39578    0.11991    0.73873   1.00
C2       0.46344    0.21648    0.75371   1.00
C5       0.20142    0.14171    0.76894   1.00
H2       0.14984    0.11240    0.77594   1.00
H2       0.21466    0.10461    0.76219   1.00
C5       0.19863    0.18632    0.75218   1.00
H2       0.25061    0.21705    0.74556   1.00
H2       0.18475    0.22272    0.75905   1.00
C5       0.14705    0.14301    0.73576   1.00
H2       0.09511    0.11184    0.74229   1.00
H2       0.16216    0.10832    0.72840   1.00
H2       0.14463    0.17658    0.72388   1.00
C5       0.30361    0.00888    0.77345   1.00
C5       0.52468    0.37022    0.76857   1.00
H2       0.30996    0.01596    0.79016   1.00
H2       0.34794    0.00616    0.76717   1.00
H2       0.48244    0.37228    0.77665   1.00
H2       0.51360    0.36713    0.75194   1.00
H2       0.63846    0.48672    0.74434   1.00
H2       0.22255    -0.10821   0.79888   1.00
H2       0.27843    -0.12079   0.78184   1.00
C2       0.20543    0.08037    0.83008   1.00
C3       0.26264    0.07153    0.83197   1.00
O2       0.26103    0.02322    0.84506   1.00
C3       0.20339    0.11950    0.81364   1.00
H1       0.16117    0.12869    0.81205   1.00
C3a      0.31501    0.10005    0.81731   1.00
H1       0.35654    0.08955    0.81833   1.00
C3b      0.25449    0.14594    0.79873   1.00
C4       0.31081    0.13622    0.80046   1.00
O_3      0.29688    0.06154    0.76430   1.00
C5       0.29740    0.05465    0.86296   1.00
H2       0.35180    0.09260    0.85959   1.00
C5       0.29420    -0.00187   0.87646   1.00
H2       0.27399    0.08107    0.87108   1.00
H2       0.33272    -0.01496   0.87094   1.00
H2       0.24330    -0.04808   0.87413   1.00
C5       0.30582    0.01791    0.89909   1.00
H2       0.35429    0.06699    0.90093   1.00
H2       0.30885    -0.02197   0.90816   1.00
H2       0.26274    0.02275    0.90553   1.00
C5       0.23853    -0.05804   0.76910   1.00
H2       0.23829    -0.07083   0.75278   1.00
H2       0.19430    -0.05007   0.77150   1.00
C5       0.23177    -0.11628   0.78275   1.00
H2       0.18771    -0.16552   0.77775   1.00
C5       0.57615    0.18682    0.77831   1.00
H2       0.59836    0.24277    0.77665   1.00
H2       0.56297    0.17558    0.79462   1.00
C5       0.51129    0.14937    0.76505   1.00
H2       0.46657    0.14693    0.77289   1.00
H2       0.50017    0.09659    0.76173   1.00
O_3      0.80031    0.06167    0.78609   1.00
C4       0.83766    0.20033    0.78501   1.00
C3c      0.77711    0.20198    0.78802   1.00
H1       0.75019    0.18478    0.80227   1.00
C3d      0.87246    0.22388    0.76644   1.00
C3       0.74984    0.22474    0.77271   1.00
O2       0.69517    0.23274    0.77761   1.00
C3       0.84476    0.24536    0.75102   1.00
H1       0.87198    0.26068    0.73677   1.00
C2       0.78318    0.24665    0.75373   1.00
C5       0.83545    0.04503    0.77156   1.00
H2       0.86229    0.02010    0.77854   1.00
H2       0.87389    0.09140    0.76326   1.00
C5       0.78318    -0.00435   0.75654   1.00
H2       0.75502    0.01981    0.74999   1.00
H2       0.74545    -0.05070   0.76496   1.00
C5       0.81752    -0.02330   0.73972   1.00
H2       0.84613    -0.04703   0.74617   1.00
H2       0.85346    0.02261    0.73086   1.00
H2       0.77838    -0.06058   0.72915   1.00
C5       0.98827    0.27722    0.76923   1.00
C5       0.63360    0.17274    0.77273   1.00
H2       0.98672    0.28234    0.78597   1.00
H2       0.99443    0.32451    0.76198   1.00
H2       0.62894    0.12882    0.78170   1.00
H2       0.63044    0.15897    0.75631   1.00
H2       0.51731    0.17698    0.75045   1.00
H2       1.10940    0.30832    0.79201   1.00
H2       1.12397    0.37368    0.77348   1.00
C2       0.91903    0.12452    0.83010   1.00
C3       0.93562    0.19347    0.83050   1.00
O2       0.99015    0.24056    0.84184   1.00
C3       0.87269    0.08112    0.81519   1.00
H1       0.85758    0.02769    0.81480   1.00
C3a      0.90737    0.21769    0.81587   1.00
H1       0.92360    0.27143    0.81566   1.00
C3b      0.84639    0.10585    0.80026   1.00
C4       0.86376    0.17463    0.80048   1.00
O_3      0.92941    0.21851    0.76214   1.00
C5       0.96692    0.25498    0.86001   1.00
H2       0.93247    0.27596    0.85690   1.00
C5       1.03000    0.30816    0.87149   1.00
H2       0.93893    0.20826    0.86951   1.00
H2       1.04659    0.35918    0.86475   1.00
H2       1.07180    0.29684    0.86858   1.00
C5       1.01754    0.30879    0.89447   1.00
H2       0.97231    0.31474    0.89706   1.00
H2       1.06253    0.35172    0.90201   1.00
H2       1.00936    0.26090    0.90192   1.00
C5       1.04952    0.26963    0.76386   1.00
H2       1.05791    0.27637    0.74717   1.00
H2       1.03667    0.21642    0.76743   1.00
C5       1.11403    0.32069    0.77549   1.00
H2       1.15897    0.31857    0.76967   1.00
C5       -0.03940   0.35554    0.46143   1.00
H2       -0.04837   0.39337    0.46951   1.00
H2       0.01633    0.37515    0.46241   1.00
C5       -0.07936   0.28549    0.47211   1.00
H2       -0.05100   0.28325    0.48561   1.00
H2       -0.08772   0.24398    0.46141   1.00
O_3      -0.01781   0.37445    0.35609   1.00
C4       -0.02908   0.46777    0.38171   1.00
C3c      -0.01639   0.45325    0.40141   1.00
H1       0.03332    0.46062    0.40518   1.00
C3d      -0.09390   0.45875    0.37720   1.00
C3       -0.06750   0.42822    0.41643   1.00
O2       -0.04899   0.42312    0.43595   1.00
C3       -0.14529   0.43260    0.39201   1.00
H1       -0.19491   0.42424    0.38764   1.00
C2       -0.13355   0.41694    0.41194   1.00
C5       -0.06736   0.34934    0.34056   1.00
H2       -0.04407   0.35715    0.32519   1.00
H2       -0.09887   0.37460    0.34095   1.00
C5       -0.11325   0.27329    0.34402   1.00
H2       -0.13502   0.26537    0.35960   1.00
H2       -0.08137   0.24851    0.34341   1.00
C5       -0.17033   0.24221    0.32814   1.00
H2       -0.14895   0.25035    0.31254   1.00
H2       -0.20361   0.26525    0.32921   1.00
H2       -0.20244   0.18635    0.33065   1.00
C5       -0.09194   0.53625    0.35471   1.00
C5       -0.06005   0.35671    0.43939   1.00
H2       -0.03598   0.57045    0.35640   1.00
H2       -0.11857   0.55273    0.36562   1.00
H2       -0.02788   0.34599    0.42889   1.00
H2       -0.11436   0.31633    0.43685   1.00
H2       -0.12976   0.27634    0.47782   1.00
H2       -0.02228   0.64024    0.32428   1.00
H2       -0.08788   0.64903    0.33753   1.00
C2       0.12177    0.53666    0.33479   1.00
C3       0.11939    0.58416    0.34815   1.00
O2       0.15295    0.65267    0.34339   1.00
C3       0.07569    0.46644    0.33797   1.00
H1       0.07738    0.42871    0.32834   1.00
C3a      0.07052    0.56092    0.36386   1.00
H1       0.06678    0.59810    0.37323   1.00
C3b      0.02574    0.44363    0.35320   1.00
C4       0.02274    0.49096    0.36628   1.00
O_3      -0.11057   0.46736    0.35766   1.00
C5       0.21427    0.68752    0.35449   1.00
H2       0.20445    0.68202    0.37117   1.00
C5       0.24767    0.76291    0.34865   1.00
H2       0.24936    0.66797    0.35066   1.00
H2       0.22213    0.78622    0.35724   1.00
H2       0.23653    0.76529    0.33231   1.00
C5       0.32522    0.80244    0.35253   1.00
H2       0.33563    0.79505    0.36853   1.00
H2       0.34665    0.85795    0.34973   1.00
H2       0.35262    0.78526    0.34211   1.00
C5       -0.11234   0.54299    0.33320   1.00
H2       -0.16893   0.51832    0.33254   1.00
H2       -0.09751   0.51367    0.32286   1.00
C5       -0.07839   0.61792    0.32634   1.00
H2       -0.09981   0.62136    0.31151   1.00
C5       0.39419    1.04005    0.46126   1.00
H2       0.44080    1.04878    0.46940   1.00
H2       0.35784    0.98436    0.46222   1.00
C5       0.36427    1.08030    0.47185   1.00
H2       0.33340    1.05203    0.48532   1.00
H2       0.33141    1.08886    0.46109   1.00
O_3      0.39285    1.01835    0.35593   1.00
C4       0.49686    1.02908    0.38171   1.00
C3c      0.46939    1.01652    0.40138   1.00
H1       0.42683    0.96691    0.40512   1.00
C3d      0.55293    1.09376    0.37724   1.00
C3       0.49547    1.06763    0.41639   1.00
O2       0.47155    1.04921    0.43589   1.00
C3       0.57818    1.14516    0.39204   1.00
H1       0.61966    1.19468    0.38770   1.00
C2       0.55052    1.13355    0.41194   1.00
C5       0.41772    1.06789    0.34039   1.00
H2       0.40237    1.04462    0.32502   1.00
H2       0.47450    1.09917    0.34085   1.00
C5       0.38786    1.11409    0.34376   1.00
H2       0.40158    1.13585    0.35934   1.00
H2       0.33120    1.08244    0.34309   1.00
C5       0.41432    1.17117    0.32788   1.00
H2       0.40122    1.14979    0.31227   1.00
H2       0.47066    1.20423    0.32901   1.00
H2       0.39079    1.20350    0.33031   1.00
C5       0.62855    1.09136    0.35487   1.00
C5       0.41637    1.06062    0.43923   1.00
H2       0.60651    1.03536    0.35658   1.00
H2       0.67154    1.11783    0.36583   1.00
H2       0.37357    1.02859    0.42869   1.00
H2       0.43060    1.11500    0.43667   1.00
H2       0.40560    1.13060    0.47758   1.00
H2       0.66282    1.02129    0.32457   1.00
H2       0.73718    1.08666    0.33788   1.00
C2       0.41494    0.87824    0.33479   1.00
C3       0.46449    0.88035    0.34822   1.00
O2       0.49922    0.84650    0.34356   1.00
C3       0.39107    0.92459    0.33789   1.00
H1       0.35189    0.92311    0.32819   1.00
C3a      0.49011    0.92922    0.36394   1.00
H1       0.53081    0.93274    0.37337   1.00
C3b      0.41821    0.97453    0.35312   1.00
C4       0.46823    0.97726    0.36627   1.00
O_3      0.57850    1.11032    0.35772   1.00
C5       0.47233    0.78516    0.35466   1.00
H2       0.47646    0.79499    0.37135   1.00
C5       0.51408    0.75142    0.34893   1.00
H2       0.41770    0.75028    0.35078   1.00
H2       0.56283    0.77677    0.35758   1.00
H2       0.52786    0.76251    0.33260   1.00
C5       0.47569    0.67388    0.35281   1.00
H2       0.45765    0.66354    0.36879   1.00
H2       0.50959    0.65219    0.35009   1.00
H2       0.43122    0.64664    0.34234   1.00
C5       0.65603    1.11165    0.33340   1.00
H2       0.68819    1.16822    0.33274   1.00
H2       0.61206    1.09702    0.32300   1.00
C5       0.69680    1.07737    0.32663   1.00
H2       0.72191    1.09870    0.31183   1.00
C5       0.64581    0.60578    0.46126   1.00
H2       0.60794    0.55916    0.46941   1.00
H2       0.62646    0.64212    0.46223   1.00
C5       0.71598    0.63571    0.47186   1.00
H2       0.71857    0.66657    0.48533   1.00
H2       0.75741    0.66858    0.46110   1.00
O_3      0.62551    0.60717    0.35594   1.00
C4       0.53223    0.50314    0.38171   1.00
C3c      0.54713    0.53060    0.40138   1.00
H1       0.54006    0.57315    0.40512   1.00
C3d      0.54086    0.44708    0.37724   1.00
C3       0.57216    0.50452    0.41639   1.00
O2       0.57764    0.52842    0.43589   1.00
C3       0.56701    0.42183    0.39204   1.00
H1       0.57506    0.38036    0.38770   1.00
C2       0.58305    0.44948    0.41194   1.00
C5       0.65020    0.58232    0.34040   1.00
H2       0.64228    0.59767    0.32502   1.00
H2       0.62470    0.52554    0.34085   1.00
C5       0.72626    0.61219    0.34377   1.00
H2       0.73429    0.59847    0.35935   1.00
H2       0.75126    0.66885    0.34310   1.00
C5       0.75689    0.58575    0.32789   1.00
H2       0.74863    0.59886    0.31228   1.00
H2       0.73362    0.52941    0.32902   1.00
H2       0.81276    0.60929    0.33033   1.00
C5       0.46285    0.37146    0.35487   1.00
C5       0.64422    0.58361    0.43923   1.00
H2       0.42889    0.39349    0.35657   1.00
H2       0.44634    0.32847    0.36582   1.00
H2       0.65499    0.62642    0.42870   1.00
H2       0.68438    0.56940    0.43667   1.00
H2       0.72496    0.59438    0.47759   1.00
H2       0.35854    0.33719    0.32456   1.00
H2       0.34955    0.26283    0.33787   1.00
C2       0.46332    0.58507    0.33479   1.00
C3       0.41587    0.53549    0.34822   1.00
O2       0.34729    0.50076    0.34355   1.00
C3       0.53353    0.60894    0.33789   1.00
H1       0.57124    0.64814    0.32820   1.00
C3a      0.43912    0.50988    0.36393   1.00
H1       0.40195    0.46917    0.37337   1.00
C3b      0.55633    0.58180    0.35313   1.00
C4       0.50905    0.53177    0.36628   1.00
O_3      0.53186    0.42152    0.35772   1.00
C5       0.31283    0.52764    0.35466   1.00
H2       0.31852    0.52350    0.37134   1.00
C5       0.23734    0.48587    0.34892   1.00
H2       0.33257    0.58226    0.35077   1.00
H2       0.21394    0.43712    0.35756   1.00
H2       0.23466    0.47211    0.33259   1.00
C5       0.19817    0.52425    0.35280   1.00
H2       0.20586    0.54228    0.36877   1.00
H2       0.14259    0.49034    0.35008   1.00
H2       0.21540    0.56872    0.34233   1.00
C5       0.45569    0.34400    0.33339   1.00
H2       0.48010    0.31184    0.33273   1.00
H2       0.48502    0.38797    0.32299   1.00
C5       0.38064    0.30322    0.32662   1.00
H2       0.37687    0.27812    0.31181   1.00
C5       0.32550    0.37969    0.29284   1.00
H2       0.37188    0.42937    0.28959   1.00
H2       0.33921    0.34006    0.28934   1.00
C5       0.30638    0.37655    0.31551   1.00
H2       0.33787    0.36232    0.32507   1.00
H2       0.25153    0.33833    0.31777   1.00
O_3      0.07175    0.24458    0.21908   1.00
C4       0.20013    0.36302    0.21489   1.00
C3c      0.23951    0.36235    0.23124   1.00
H1       0.25218    0.32233    0.23231   1.00
C3d      0.18502    0.41618    0.21362   1.00
C3       0.26229    0.41237    0.24656   1.00
O2       0.30741    0.41321    0.26070   1.00
C3       0.20651    0.46531    0.22905   1.00
H1       0.19165    0.50370    0.22781   1.00
C2       0.24576    0.46497    0.24581   1.00
C5       0.01734    0.25570    0.21424   1.00
H2       -0.01699   0.21960    0.20243   1.00
H2       0.03663    0.30874    0.20864   1.00
C5       -0.02383   0.24493    0.23346   1.00
H2       0.01089    0.27966    0.24543   1.00
H2       -0.04336   0.19164    0.23881   1.00
C5       -0.08289   0.25844    0.22970   1.00
H2       -0.11751   0.22426    0.21766   1.00
H2       -0.06333   0.31231    0.22504   1.00
H2       -0.11328   0.24885    0.24381   1.00
C5       0.18077    0.44962    0.18128   1.00
C5       0.27143    0.37477    0.27791   1.00
H2       0.20619    0.42248    0.17495   1.00
H2       0.22046    0.50340    0.18463   1.00
H2       0.23649    0.32053    0.27355   1.00
H2       0.23963    0.39419    0.28508   1.00
H2       0.31643    0.42738    0.32110   1.00
H2       0.17200    0.42599    0.13805   1.00
H2       0.21380    0.51604    0.14449   1.00
C2       0.12292    0.20815    0.16908   1.00
C3       0.18894    0.26540    0.16717   1.00
O2       0.22219    0.28103    0.14873   1.00
C3       0.08501    0.20196    0.18681   1.00
H1       0.03504    0.15788    0.18897   1.00
C3a      0.21462    0.31545    0.18256   1.00
H1       0.26363    0.36085    0.18034   1.00
C3b      0.10980    0.25287    0.20177   1.00
C4       0.17500    0.31026    0.19971   1.00
O_3      0.14215    0.41629    0.19868   1.00
C5       0.27158    0.26043    0.14850   1.00
H2       0.31030    0.28630    0.16072   1.00
C5       0.30677    0.28047    0.12780   1.00
H2       0.24737    0.20419    0.15056   1.00
H2       0.34521    0.33587    0.12808   1.00
H2       0.26757    0.27382    0.11640   1.00
C5       0.34054    0.23836    0.12182   1.00
H2       0.37549    0.24126    0.13411   1.00
H2       0.37035    0.25817    0.10755   1.00
H2       0.30156    0.18381    0.11895   1.00
C5       0.13184    0.44963    0.16545   1.00
H2       0.11551    0.48641    0.17029   1.00
H2       0.08531    0.39813    0.16531   1.00
C5       0.16411    0.46750    0.14417   1.00
H2       0.12982    0.47400    0.13349   1.00
C5       0.38488    0.57967    0.22044   1.00
H2       0.39760    0.56498    0.23517   1.00
H2       0.39880    0.55391    0.20859   1.00
C5       0.30755    0.55446    0.21966   1.00
H2       0.27813    0.49954    0.21543   1.00
H2       0.29720    0.58465    0.20835   1.00
O_3      0.61830    0.89586    0.18007   1.00
C4       0.63801    0.83711    0.21518   1.00
C3c      0.58595    0.76850    0.21503   1.00
H1       0.58446    0.73506    0.20309   1.00
C3d      0.63959    0.87959    0.23104   1.00
C3       0.53470    0.74220    0.23000   1.00
O2       0.49044    0.67291    0.23027   1.00
C3       0.58789    0.85389    0.24575   1.00
H1       0.58987    0.88899    0.25720   1.00
C2       0.53445    0.78482    0.24569   1.00
C5       0.63035    0.96258    0.18342   1.00
H2       0.66858    1.00017    0.17263   1.00
H2       0.64894    0.97995    0.19917   1.00
C5       0.56322    0.96131    0.18037   1.00
H2       0.52450    0.92237    0.19075   1.00
H2       0.54548    0.94452    0.16454   1.00
C5       0.57122    1.03163    0.18445   1.00
H2       0.61017    1.07087    0.17423   1.00
H2       0.58665    1.04740    0.20045   1.00
H2       0.52202    1.03008    0.18171   1.00
C5       0.74682    0.95985    0.24083   1.00
C5       0.43127    0.65708    0.21896   1.00
H2       0.77066    0.93407    0.23267   1.00
H2       0.73679    0.94131    0.25683   1.00
H2       0.44502    0.67269    0.20281   1.00
H2       0.40438    0.68371    0.22483   1.00
H2       0.28801    0.55887    0.23483   1.00
H2       0.89196    1.03722    0.23355   1.00
H2       0.87064    1.02837    0.26038   1.00
C2       0.79081    0.92196    0.16886   1.00
C3       0.80020    0.88951    0.18583   1.00
O2       0.86398    0.89929    0.19034   1.00
C3       0.72880    0.92254    0.16716   1.00
H1       0.71931    0.94540    0.15409   1.00
C3a      0.74893    0.86031    0.20080   1.00
H1       0.75852    0.83912    0.21426   1.00
C3b      0.67885    0.89539    0.18239   1.00
C4       0.68871    0.86409    0.19940   1.00
O_3      0.68667    0.94865    0.23104   1.00
C5       0.86889    0.84226    0.18414   1.00
H2       0.82989    0.79476    0.19187   1.00
C5       0.94029    0.85650    0.18995   1.00
H2       0.86193    0.83467    0.16742   1.00
H2       0.94041    0.84564    0.20642   1.00
H2       0.97591    0.91219    0.18795   1.00
C5       0.96399    0.81483    0.17732   1.00
H2       0.92517    0.75977    0.17821   1.00
H2       1.01342    0.82219    0.18311   1.00
H2       0.97248    0.83143    0.16109   1.00
C5       0.79645    1.03636    0.24080   1.00
H2       0.77793    1.06077    0.25181   1.00
H2       0.79514    1.05661    0.22551   1.00
C5       0.86963    1.05342    0.24597   1.00
H2       0.90282    1.10939    0.24789   1.00
C5       0.39610    0.76043    0.21475   1.00
H2       0.42074    0.79353    0.22813   1.00
H2       0.42049    0.79299    0.20125   1.00
C5       0.40927    0.69964    0.21508   1.00
H2       0.46076    0.71496    0.20893   1.00
H2       0.37009    0.65684    0.20582   1.00
O_3      0.08086    0.71248    0.18419   1.00
C4       0.16305    0.80101    0.21517   1.00
C3c      0.22710    0.80601    0.21303   1.00
H1       0.25697    0.82883    0.19952   1.00
C3d      0.12537    0.77199    0.23302   1.00
C3       0.25318    0.78098    0.22805   1.00
O2       0.31949    0.79512    0.22606   1.00
C3       0.15061    0.74584    0.24782   1.00
H1       0.11883    0.72186    0.26093   1.00
C2       0.21496    0.74981    0.24581   1.00
C5       0.01340    0.66771    0.19064   1.00
H2       -0.02503   0.67062    0.18076   1.00
H2       0.00536    0.67911    0.20653   1.00
C5       0.00176    0.59562    0.18967   1.00
H2       0.04136    0.59321    0.19908   1.00
H2       0.00930    0.58458    0.17370   1.00
C5       -0.06990   0.54365    0.19715   1.00
H2       -0.10969   0.54611    0.18791   1.00
H2       -0.07666   0.55319    0.21331   1.00
H2       -0.07799   0.49114    0.19591   1.00
C5       0.06286    0.81996    0.24356   1.00
C5       0.32094    0.74086    0.21590   1.00
H2       0.09068    0.86476    0.23339   1.00
H2       0.08826    0.83265    0.25870   1.00
H2       0.29924    0.73468    0.20034   1.00
H2       0.29063    0.69102    0.22395   1.00
H2       0.40819    0.68143    0.23091   1.00
H2       0.00211    0.90361    0.23588   1.00
H2       0.02023    0.90036    0.26259   1.00
C2       0.07765    0.86917    0.16906   1.00
C3       0.12166    0.91540    0.18383   1.00
O2       0.12433    0.97701    0.18679   1.00
C3       0.06555    0.80152    0.16937   1.00
H1       0.03353    0.76537    0.15796   1.00
C3a      0.15083    0.89293    0.19869   1.00
H1       0.18127    0.92787    0.21057   1.00
C3b      0.09288    0.77875    0.18455   1.00
C4       0.13578    0.82449    0.19940   1.00
O_3      0.05991    0.76119    0.23518   1.00
C5       0.18308    1.03009    0.17750   1.00
H2       0.23052    1.03382    0.18387   1.00
C5       0.18290    1.09646    0.18175   1.00
H2       0.18225    1.02206    0.16080   1.00
H2       0.20209    1.11343    0.19744   1.00
H2       0.12879    1.08437    0.18159   1.00
C5       0.22556    1.15325    0.16633   1.00
H2       0.27795    1.16087    0.16553   1.00
H2       0.22892    1.20219    0.17089   1.00
H2       0.20187    1.14054    0.15091   1.00
C5       -0.01010   0.80528    0.24600   1.00
H2       -0.03424   0.76863    0.25875   1.00
H2       -0.03896   0.77924    0.23200   1.00
C5       -0.01329   0.87077    0.24970   1.00
H2       -0.06631   0.85755    0.25351   1.00
C5       1.01967    0.59041    0.53322   1.00
H2       1.06202    0.64401    0.53418   1.00
H2       0.97194    0.59272    0.53441   1.00
C5       1.02281    0.55958    0.51258   1.00
H2       0.99928    0.57508    0.50039   1.00
H2       0.99534    0.50293    0.51358   1.00
O_3      0.93315    0.39362    0.62099   1.00
C4       1.02958    0.53360    0.61842   1.00
C3c      1.01940    0.55499    0.59940   1.00
H1       0.97181    0.55341    0.59621   1.00
C3d      1.09234    0.53698    0.62237   1.00
C3       1.06966    0.57769    0.58416   1.00
O2       1.05946    0.60556    0.56688   1.00
C3       1.14198    0.55833    0.60710   1.00
H1       1.18834    0.55777    0.61058   1.00
C2       1.13222    0.57942    0.58770   1.00
C5       0.95966    0.35562    0.63029   1.00
H2       0.92812    0.32518    0.64342   1.00
H2       1.01282    0.38966    0.63576   1.00
C5       0.96003    0.30693    0.61450   1.00
H2       0.98995    0.33721    0.60113   1.00
H2       0.90664    0.27279    0.60929   1.00
C5       0.99050    0.26515    0.62318   1.00
H2       0.96115    0.23515    0.63662   1.00
H2       1.04457    0.29903    0.62774   1.00
H2       0.98896    0.22880    0.61156   1.00
C5       1.12834    0.56347    0.65514   1.00
C5       1.02770    0.55464    0.55185   1.00
H2       1.09110    0.58056    0.65852   1.00
H2       1.17745    0.60858    0.65032   1.00
H2       0.97674    0.51391    0.55726   1.00
H2       1.05815    0.52968    0.54793   1.00
H2       1.07672    0.57837    0.50782   1.00
H2       1.10168    0.57729    0.69721   1.00
H2       1.19056    0.63227    0.69027   1.00
C2       0.87586    0.45685    0.66457   1.00
C3       0.92143    0.52765    0.66290   1.00
O2       0.92861    0.57076    0.67869   1.00
C3       0.88032    0.41304    0.65012   1.00
H1       0.84505    0.35877    0.65066   1.00
C3a      0.97094    0.55268    0.64737   1.00
H1       1.00793    0.60657    0.64699   1.00
C3b      0.93100    0.43786    0.63508   1.00
C4       0.97693    0.50814    0.63363   1.00
O_3      1.10294    0.51172    0.64028   1.00
C5       0.89260    0.60526    0.67444   1.00
H2       0.91169    0.63615    0.66027   1.00
C5       0.90400    0.65263    0.69241   1.00
H2       0.83699    0.56859    0.67271   1.00
H2       0.95503    0.69913    0.69072   1.00
H2       0.90636    0.62619    0.70637   1.00
C5       0.84800    0.67209    0.69436   1.00
H2       0.84268    0.69346    0.67974   1.00
H2       0.86100    0.71093    0.70648   1.00
H2       0.79787    0.62704    0.69863   1.00
C5       1.14038    0.53382    0.67439   1.00
H2       1.18575    0.52774    0.67201   1.00
H2       1.09584    0.48175    0.67668   1.00
C5       1.15011    0.57857    0.69308   1.00
H2       1.16577    0.55935    0.70634   1.00
C5       0.57177    -0.02007   0.53333   1.00
H2       0.58275    -0.06260   0.53434   1.00
H2       0.62193    0.02751    0.53456   1.00
C5       0.53817    -0.02304   0.51263   1.00
H2       0.57739    0.00033    0.50049   1.00
H2       0.50922    0.00468    0.51356   1.00
O_3      0.46109    0.06737    0.62083   1.00
C4       0.50401    -0.02959   0.61842   1.00
C3c      0.53580    -0.01956   0.59945   1.00
H1       0.58201    0.02790    0.59629   1.00
C3d      0.44438    -0.09218   0.62233   1.00
C3       0.50825    -0.06982   0.58420   1.00
O2       0.54651    -0.05981   0.56698   1.00
C3       0.41611    -0.14181   0.60705   1.00
H1       0.36901    -0.18803   0.61050   1.00
C2       0.44720    -0.13221   0.58770   1.00
C5       0.39649    0.04115    0.63005   1.00
H2       0.39758    0.07278    0.64315   1.00
H2       0.37704    -0.01205   0.63553   1.00
C5       0.34779    0.04105    0.61418   1.00
H2       0.34815    0.01103    0.60084   1.00
H2       0.36735    0.09448    0.60895   1.00
C5       0.27544    0.01091    0.62276   1.00
H2       0.27478    0.04035    0.63618   1.00
H2       0.25495    -0.04319   0.62733   1.00
H2       0.24091    0.01265    0.61109   1.00
C5       0.43424    -0.12821   0.65512   1.00
C5       0.52780    -0.02786   0.55189   1.00
H2       0.48858    -0.09117   0.65855   1.00
H2       0.43004    -0.17744   0.65033   1.00
H2       0.53820    0.02318    0.55727   1.00
H2       0.47243    -0.05809   0.54790   1.00
H2       0.50291    -0.07691   0.50786   1.00
H2       0.47417    -0.10168   0.69723   1.00
H2       0.43997    -0.19062   0.69031   1.00
C2       0.58098    0.12416    0.66456   1.00
C3       0.60591    0.07832    0.66298   1.00
O2       0.64148    0.07093    0.67883   1.00
C3       0.53303    0.11996    0.65003   1.00
H1       0.51428    0.15543    0.65051   1.00
C3a      0.58143    0.02880    0.64744   1.00
H1       0.59808    -0.00839   0.64713   1.00
C3b      0.50716    0.06926    0.63500   1.00
C4       0.53120    0.02307    0.63363   1.00
O_3      0.40832    -0.10259   0.64018   1.00
C5       0.71205    0.10663    0.67467   1.00
H2       0.72390    0.08742    0.66053   1.00
C5       0.74759    0.09501    0.69271   1.00
H2       0.73127    0.16229    0.67293   1.00
H2       0.74281    0.04386    0.69105   1.00
H2       0.71867    0.09281    0.70663   1.00
C5       0.82314    0.15074    0.69473   1.00
H2       0.84998    0.15592    0.68016   1.00
H2       0.84865    0.13756    0.70691   1.00
H2       0.82843    0.20098    0.69897   1.00
C5       0.39234    -0.14004   0.67430   1.00
H2       0.34081    -0.18524   0.67188   1.00
H2       0.38505    -0.09533   0.67654   1.00
C5       0.42694    -0.14999   0.69306   1.00
H2       0.39189    -0.16548   0.70628   1.00
C5       0.40820    0.42827    0.53333   1.00
H2       0.35470    0.41728    0.53434   1.00
H2       0.40564    0.37812    0.53455   1.00
C5       0.43885    0.46189    0.51263   1.00
H2       0.42301    0.42268    0.50048   1.00
H2       0.49552    0.49085    0.51356   1.00
O_3      0.60627    0.53893    0.62084   1.00
C4       0.46640    0.49599    0.61842   1.00
C3c      0.44464    0.46421    0.59944   1.00
H1       0.44591    0.41801    0.59629   1.00
C3d      0.46341    0.55561    0.62233   1.00
C3       0.42193    0.49176    0.58420   1.00
O2       0.39370    0.45351    0.56698   1.00
C3       0.44206    0.58388    0.60705   1.00
H1       0.44292    0.63097    0.61050   1.00
C2       0.42058    0.55280    0.58770   1.00
C5       0.64464    0.60354    0.63006   1.00
H2       0.67518    0.60244    0.64317   1.00
H2       0.61088    0.62296    0.63554   1.00
C5       0.69325    0.65225    0.61419   1.00
H2       0.66287    0.65189    0.60085   1.00
H2       0.72712    0.63269    0.60897   1.00
C5       0.73543    0.72460    0.62278   1.00
H2       0.76553    0.72525    0.63619   1.00
H2       0.70181    0.74507    0.62735   1.00
H2       0.77170    0.75913    0.61111   1.00
C5       0.43749    0.56572    0.65512   1.00
C5       0.44437    0.47223    0.55189   1.00
H2       0.42020    0.51138    0.65855   1.00
H2       0.39247    0.56992    0.65033   1.00
H2       0.48501    0.46184    0.55727   1.00
H2       0.46951    0.52761    0.54791   1.00
H2       0.42023    0.49714    0.50786   1.00
H2       0.42408    0.52578    0.69723   1.00
H2       0.36933    0.55997    0.69030   1.00
C2       0.54317    0.41902    0.66457   1.00
C3       0.47240    0.39407    0.66297   1.00
O2       0.42943    0.35849    0.67882   1.00
C3       0.58692    0.46698    0.65004   1.00
H1       0.64115    0.48574    0.65052   1.00
C3a      0.44736    0.41856    0.64744   1.00
H1       0.39352    0.40189    0.64713   1.00
C3b      0.56210    0.49286    0.63501   1.00
C4       0.49186    0.46880    0.63363   1.00
O_3      0.48904    0.59166    0.64019   1.00
C5       0.39458    0.28793    0.67466   1.00
H2       0.36352    0.27607    0.66052   1.00
C5       0.34740    0.25237    0.69270   1.00
H2       0.43103    0.26872    0.67292   1.00
H2       0.30103    0.25714    0.69104   1.00
H2       0.37412    0.28129    0.70662   1.00
C5       0.32761    0.17682    0.69472   1.00
H2       0.30595    0.14999    0.68014   1.00
H2       0.28891    0.15130    0.70689   1.00
H2       0.37256    0.17154    0.69896   1.00
C5       0.46756    0.60762    0.67430   1.00
H2       0.47387    0.65914    0.67188   1.00
H2       0.51956    0.61491    0.67655   1.00
C5       0.42300    0.57300    0.69306   1.00
H2       0.44255    0.60805    0.70628   1.00
C5       0.29798    -0.32264   0.12327   1.00
H2       0.25891    -0.32553   0.11250   1.00
H2       0.27805    -0.32272   0.13867   1.00
C5       0.30675    -0.38566   0.12042   1.00
H2       0.26601    -0.43065   0.12859   1.00
H2       0.35736    -0.37460   0.12629   1.00
O_3      0.58050    -0.00339   0.14186   1.00
C4       0.46666    -0.02886   0.11821   1.00
C3c      0.41659    -0.09657   0.12234   1.00
H1       0.39548    -0.11053   0.13744   1.00
C3d      0.49279    -0.01154   0.09836   1.00
C3       0.39369    -0.14735   0.10725   1.00
O2       0.33885    -0.21037   0.11173   1.00
C3       0.47105    -0.06223   0.08340   1.00
H1       0.49430    -0.04701   0.06858   1.00
C2       0.42099    -0.13111   0.08737   1.00
C5       0.64283    0.03614    0.13154   1.00
H2       0.67879    0.08267    0.14022   1.00
H2       0.63438    0.05246    0.11636   1.00
C5       0.67545    -0.00785   0.12871   1.00
H2       0.63874    -0.05525   0.12054   1.00
H2       0.68423    -0.02331   0.14396   1.00
C5       0.74262    0.03057    0.11692   1.00
H2       0.77935    0.07821    0.12492   1.00
H2       0.73358    0.04396    0.10143   1.00
H2       0.76645    -0.00184   0.11539   1.00
C5       0.51900    0.09552    0.08861   1.00
C5       0.36202    -0.25391   0.11908   1.00
H2       0.49018    0.10093    0.10145   1.00
H2       0.48457    0.07540    0.07517   1.00
H2       0.39179    -0.23273   0.13335   1.00
H2       0.39585    -0.26028   0.10801   1.00
H2       0.30231    -0.40062   0.10409   1.00
H2       0.54523    0.23090    0.09837   1.00
H2       0.51347    0.20505    0.07269   1.00
C2       0.54388    0.12611    0.16398   1.00
C3       0.48457    0.11174    0.15304   1.00
O2       0.46088    0.15727    0.15316   1.00
C3       0.57456    0.08602    0.16012   1.00
H1       0.61898    0.09456    0.16861   1.00
C3a      0.45855    0.05954    0.13831   1.00
H1       0.41542    0.05177    0.12925   1.00
C3b      0.54985    0.03562    0.14501   1.00
C4       0.49150    0.02210    0.13392   1.00
O_3      0.54578    0.05316    0.09389   1.00
C5       0.40469    0.13443    0.16641   1.00
H2       0.36204    0.08341    0.16172   1.00
C5       0.38082    0.18679    0.16543   1.00
H2       0.41955    0.13081    0.18228   1.00
H2       0.34950    0.17697    0.15148   1.00
H2       0.42699    0.23797    0.16348   1.00
C5       0.34029    0.18561    0.18437   1.00
H2       0.29756    0.13293    0.18699   1.00
H2       0.31897    0.22015    0.18236   1.00
H2       0.37358    0.20383    0.19813   1.00
C5       0.57887    0.16553    0.08347   1.00
H2       0.60042    0.16216    0.06861   1.00
H2       0.61943    0.17881    0.09506   1.00
C5       0.55800    0.22062    0.08289   1.00
H2       0.60091    0.26924    0.07706   1.00
C5       1.05545    0.37985    0.04305   1.00
H2       1.05925    0.42184    0.03342   1.00
H2       1.00113    0.33889    0.04243   1.00
C5       1.10187    0.35402    0.03430   1.00
H2       1.07621    0.31795    0.02152   1.00
H2       1.11457    0.32770    0.04633   1.00
O_3      1.02953    0.40639    0.14747   1.00
C4       1.02900    0.49680    0.11826   1.00
C3c      1.01968    0.46404    0.09948   1.00
H1       0.97261    0.41729    0.09643   1.00
C3d      1.09030    0.55819    0.12181   1.00
C3       1.07090    0.49027    0.08450   1.00
O2       1.05495    0.46014    0.06565   1.00
C3       1.14192    0.58374    0.10708   1.00
H1       1.18900    0.62967    0.11077   1.00
C2       1.13363    0.55086    0.08809   1.00
C5       1.07832    0.44014    0.16288   1.00
H2       1.05516    0.42745    0.17832   1.00
H2       1.10444    0.49661    0.16093   1.00
C5       1.13079    0.41720    0.16141   1.00
H2       1.15255    0.42813    0.14580   1.00
H2       1.10426    0.36086    0.16358   1.00
C5       1.18732    0.45347    0.17725   1.00
H2       1.16589    0.44316    0.19287   1.00
H2       1.21540    0.50955    0.17467   1.00
H2       1.22437    0.43495    0.17624   1.00
C5       1.07791    0.63455    0.14129   1.00
C5       1.07380    0.40938    0.06452   1.00
H2       1.02155    0.60663    0.13941   1.00
H2       1.10094    0.67458    0.12930   1.00
H2       1.04488    0.36871    0.07598   1.00
H2       1.12936    0.43010    0.06750   1.00
H2       1.15010    0.39699    0.02798   1.00
H2       0.99890    0.66640    0.16898   1.00
H2       1.05924    0.73971    0.15419   1.00
C2       0.87838    0.41556    0.16526   1.00
C3       0.87499    0.45793    0.15015   1.00
O2       0.83491    0.48729    0.15295   1.00
C3       0.93027    0.39828    0.16384   1.00
H1       0.93318    0.36453    0.17487   1.00
C3a      0.92392    0.48324    0.13445   1.00
H1       0.92298    0.51872    0.12366   1.00
C3b      0.98014    0.42528    0.14858   1.00
C4       0.97734    0.46824    0.13375   1.00
O_3      1.10408    0.58964    0.14059   1.00
C5       0.77379    0.45148    0.14180   1.00
H2       0.78417    0.45171    0.12524   1.00
C5       0.73295    0.48769    0.14542   1.00
H2       0.74351    0.39756    0.14703   1.00
H2       0.75403    0.53359    0.13550   1.00
H2       0.74248    0.50658    0.16135   1.00
C5       0.65591    0.44127    0.14159   1.00
H2       0.64767    0.41862    0.12618   1.00
H2       0.62883    0.47083    0.14270   1.00
H2       0.63225    0.39964    0.15314   1.00
C5       1.09533    0.66880    0.16201   1.00
H2       1.15109    0.70589    0.16249   1.00
H2       1.08492    0.62918    0.17368   1.00
C5       1.05400    0.70433    0.16667   1.00
H2       1.07301    0.73458    0.18086   1.00
C5       0.60526    0.64485    0.03861   1.00
H2       0.55851    0.60701    0.03052   1.00
H2       0.64145    0.62532    0.03764   1.00
C5       0.63530    0.71493    0.02796   1.00
H2       0.66598    0.71728    0.01447   1.00
H2       0.66837    0.75642    0.03868   1.00
O_3      0.60757    0.62554    0.14395   1.00
C4       0.50314    0.53223    0.11829   1.00
C3c      0.53042    0.54686    0.09860   1.00
H1       0.57282    0.53957    0.09484   1.00
C3d      0.44726    0.54114    0.12279   1.00
C3       0.50434    0.57189    0.08358   1.00
O2       0.52803    0.57710    0.06407   1.00
C3       0.42202    0.56729    0.10798   1.00
H1       0.38071    0.57556    0.11235   1.00
C2       0.44949    0.58305    0.08806   1.00
C5       0.58301    0.65053    0.15949   1.00
H2       0.59845    0.64268    0.17486   1.00
H2       0.52624    0.62520    0.15908   1.00
C5       0.61309    0.72658    0.15605   1.00
H2       0.59928    0.73453    0.14047   1.00
H2       0.66974    0.75142    0.15668   1.00
C5       0.58696    0.75753    0.17193   1.00
H2       0.60016    0.74936    0.18753   1.00
H2       0.53064    0.73443    0.17085   1.00
H2       0.61065    0.81339    0.16945   1.00
C5       0.37170    0.46350    0.14525   1.00
C5       0.58334    0.64356    0.06066   1.00
H2       0.39354    0.42936    0.14355   1.00
H2       0.32863    0.44700    0.13432   1.00
H2       0.62620    0.65429    0.07116   1.00
H2       0.56933    0.68387    0.06320   1.00
H2       0.59404    0.72404    0.02224   1.00
H2       0.33739    0.35941    0.17564   1.00
H2       0.26300    0.35056    0.16237   1.00
C2       0.58509    0.46333    0.16521   1.00
C3       0.53530    0.41585    0.15183   1.00
O2       0.50041    0.34732    0.15656   1.00
C3       0.60916    0.53355    0.16205   1.00
H1       0.64851    0.57128    0.17170   1.00
C3a      0.50967    0.43909    0.13612   1.00
H1       0.46881    0.40191    0.12673   1.00
C3b      0.58201    0.55636    0.14682   1.00
C4       0.53177    0.50904    0.13372   1.00
O_3      0.42190    0.53241    0.14233   1.00
C5       0.52700    0.31258    0.14546   1.00
H2       0.52273    0.31814    0.12878   1.00
C5       0.48508    0.23716    0.15127   1.00
H2       0.58163    0.33218    0.14931   1.00
H2       0.43625    0.21382    0.14266   1.00
H2       0.47148    0.23470    0.16761   1.00
C5       0.52319    0.19774    0.14739   1.00
H2       0.54107    0.20521    0.13140   1.00
H2       0.48916    0.14220    0.15017   1.00
H2       0.56775    0.21493    0.15783   1.00
C5       0.34447    0.45663    0.16674   1.00
H2       0.31248    0.48122    0.16741   1.00
H2       0.38857    0.48595    0.17710   1.00
C5       0.30355    0.38167    0.17358   1.00
H2       0.27862    0.37813    0.18840   1.00
C5       0.34300    0.65142    0.70954   1.00
H2       0.33662    0.60864    0.71930   1.00
H2       0.34145    0.63427    0.69367   1.00
C5       0.28365    0.66533    0.71344   1.00
H2       0.23734    0.62881    0.70482   1.00
H2       0.29875    0.71825    0.70875   1.00
O_3      0.67245    0.92134    0.69416   1.00
C4       0.63774    0.79994    0.71512   1.00
C3c      0.56888    0.75476    0.71059   1.00
H1       0.55400    0.73752    0.69516   1.00
C3d      0.65620    0.82101    0.73536   1.00
C3       0.51820    0.73193    0.72571   1.00
O2       0.45340    0.68148    0.72063   1.00
C3       0.60569    0.79940    0.75038   1.00
H1       0.62198    0.81882    0.76556   1.00
C2       0.53572    0.75430    0.74602   1.00
C5       0.71542    0.98025    0.70556   1.00
H2       0.76309    1.01555    0.69723   1.00
H2       0.72996    0.96659    0.72026   1.00
C5       0.67631    1.01728    0.70980   1.00
H2       0.62775    0.98140    0.71762   1.00
H2       0.66262    1.03123    0.69503   1.00
C5       0.71862    1.08098    0.72281   1.00
H2       0.76740    1.11682    0.71516   1.00
H2       0.73030    1.06688    0.73784   1.00
H2       0.68979    1.10818    0.72538   1.00
C5       0.76036    0.83671    0.74436   1.00
C5       0.41406    0.71099    0.71448   1.00
H2       0.76322    0.80927    0.73074   1.00
H2       0.73792    0.79963    0.75712   1.00
H2       0.43712    0.74333    0.70075   1.00
H2       0.41076    0.74413    0.72649   1.00
H2       0.26871    0.65827    0.72981   1.00
H2       0.89188    0.85446    0.73353   1.00
H2       0.86399    0.81784    0.75865   1.00
C2       0.79307    0.87718    0.66945   1.00
C3       0.77397    0.81434    0.67900   1.00
O2       0.81528    0.78583    0.67766   1.00
C3       0.75748    0.91162    0.67462   1.00
H1       0.76968    0.95893    0.66721   1.00
C3a      0.72166    0.78847    0.69370   1.00
H1       0.71030    0.74230    0.70171   1.00
C3b      0.70700    0.88686    0.68972   1.00
C4       0.68878    0.82492    0.69942   1.00
O_3      0.72244    0.86940    0.74035   1.00
C5       0.78881    0.73252    0.66329   1.00
H2       0.73635    0.69158    0.66753   1.00
C5       0.83660    0.70297    0.66296   1.00
H2       0.78696    0.75189    0.64790   1.00
H2       0.82425    0.66812    0.67618   1.00
H2       0.88941    0.74602    0.66544   1.00
C5       0.83226    0.66534    0.64304   1.00
H2       0.77834    0.62614    0.64000   1.00
H2       0.86327    0.63976    0.64403   1.00
H2       0.85280    0.70148    0.62994   1.00
C5       0.83226    0.89163    0.75012   1.00
H2       0.83067    0.91089    0.76554   1.00
H2       0.84870    0.93524    0.73945   1.00
C5       0.88293    0.86506    0.74943   1.00
H2       0.93294    0.90406    0.75573   1.00
C5       0.42824    0.60420    0.72352   1.00
H2       0.40797    0.63973    0.72464   1.00
H2       0.44301    0.60545    0.70739   1.00
C5       0.49129    0.62931    0.73747   1.00
H2       0.53775    0.67040    0.72995   1.00
H2       0.49981    0.58622    0.74123   1.00
O_3      0.19418    0.25741    0.71512   1.00
C4       0.16237    0.36271    0.71498   1.00
C3c      0.22467    0.42348    0.71237   1.00
H1       0.25297    0.43206    0.69843   1.00
C3d      0.12581    0.35295    0.73314   1.00
C3       0.25188    0.47348    0.72769   1.00
O2       0.30867    0.53498    0.72310   1.00
C3       0.15339    0.40206    0.74858   1.00
H1       0.12469    0.39125    0.76253   1.00
C2       0.21669    0.46346    0.74628   1.00
C5       0.15585    0.20619    0.72952   1.00
H2       0.12804    0.15446    0.72255   1.00
H2       0.11781    0.21614    0.73723   1.00
C5       0.20528    0.20684    0.74523   1.00
H2       0.23445    0.25907    0.75179   1.00
H2       0.24262    0.19622    0.73739   1.00
C5       0.16740    0.15406    0.76193   1.00
H2       0.13779    0.10184    0.75546   1.00
H2       0.13182    0.16598    0.77023   1.00
H2       0.20448    0.15424    0.77302   1.00
C5       0.01026    0.29443    0.72920   1.00
C5       0.36825    0.53377    0.72882   1.00
H2       0.01397    0.30106    0.71244   1.00
H2       0.00537    0.33681    0.73607   1.00
H2       0.37196    0.49335    0.72019   1.00
H2       0.36898    0.52289    0.74534   1.00
H2       0.48478    0.65175    0.75182   1.00
H2       -0.10952   0.20782    0.70541   1.00
H2       -0.12343   0.26056    0.72337   1.00
C2       0.08074    0.20547    0.66991   1.00
C3       0.06704    0.25976    0.66892   1.00
O2       0.01480    0.25460    0.65689   1.00
C3       0.12439    0.20643    0.68543   1.00
H1       0.13729    0.16656    0.68629   1.00
C3a      0.09540    0.31220    0.68356   1.00
H1       0.08131    0.35130    0.68328   1.00
C3b      0.15074    0.25748    0.70035   1.00
C4       0.13623    0.31085    0.69953   1.00
O_3      0.06688    0.29190    0.73709   1.00
C5       0.04125    0.29189    0.63879   1.00
H2       0.07709    0.34698    0.64198   1.00
C5       -0.01944   0.28460    0.62652   1.00
H2       0.06875    0.27137    0.62982   1.00
H2       -0.03476   0.32062    0.63279   1.00
H2       -0.06301   0.23225    0.62924   1.00
C5       -0.00409   0.29724    0.60364   1.00
H2       0.04271    0.34746    0.60132   1.00
H2       -0.04721   0.29717    0.59551   1.00
H2       0.00288    0.25622    0.59659   1.00
C5       -0.05329   0.22692    0.73421   1.00
H2       -0.06343   0.22574    0.75078   1.00
H2       -0.04225   0.18503    0.73110   1.00
C5       -0.11552   0.21608    0.72179   1.00
H2       -0.16221   0.17008    0.72733   1.00
C5       0.18652    0.57602    0.72174   1.00
H2       0.24246    0.59817    0.72338   1.00
H2       0.17522    0.56280    0.70544   1.00
C5       0.14905    0.51120    0.73502   1.00
H2       0.14653    0.46644    0.72718   1.00
H2       0.09630    0.50016    0.73835   1.00
O_3      0.06171    0.80046    0.71394   1.00
C4       0.20033    0.83766    0.71499   1.00
C3c      0.20189    0.77705    0.71199   1.00
H1       0.18462    0.75010    0.69775   1.00
C3d      0.22398    0.87251    0.73355   1.00
C3       0.22466    0.74979    0.72730   1.00
O2       0.23256    0.69506    0.72241   1.00
C3       0.24545    0.84481    0.74897   1.00
H1       0.26085    0.87208    0.76321   1.00
C2       0.24665    0.78319    0.74627   1.00
C5       0.04517    0.83569    0.72847   1.00
H2       0.02027    0.86256    0.72149   1.00
H2       0.09158    0.87412    0.73675   1.00
C5       -0.00420   0.78349    0.74351   1.00
H2       0.01994    0.75531    0.75006   1.00
H2       -0.05059   0.74577    0.73511   1.00
C5       -0.02303   0.81794    0.76032   1.00
H2       -0.04673   0.84657    0.75388   1.00
H2       0.02292    0.85387    0.76917   1.00
H2       -0.06030   0.77885    0.77091   1.00
C5       0.27742    0.98832    0.73072   1.00
C5       0.17254    0.63354    0.72732   1.00
H2       0.28248    0.98670    0.71398   1.00
H2       0.32470    0.99444    0.73797   1.00
H2       0.12861    0.62891    0.71836   1.00
H2       0.15883    0.63045    0.74374   1.00
H2       0.17669    0.51725    0.74961   1.00
H2       0.30857    1.10941    0.70792   1.00
H2       0.37398    1.12397    0.72643   1.00
C2       0.12452    0.91903    0.66990   1.00
C3       0.19345    0.93555    0.66948   1.00
O2       0.24054    0.99001    0.65812   1.00
C3       0.08114    0.87277    0.68483   1.00
H1       0.02773    0.85772    0.68523   1.00
C3a      0.21767    0.90730    0.68412   1.00
H1       0.27140    0.92346    0.68431   1.00
C3b      0.10587    0.84647    0.69976   1.00
C4       0.17463    0.86376    0.69952   1.00
O_3      0.21869    0.92952    0.73784   1.00
C5       0.25487    0.96670    0.63995   1.00
H2       0.27580    0.93221    0.64307   1.00
C5       0.30805    1.02971    0.62845   1.00
H2       0.20810    0.93872    0.63047   1.00
H2       0.35908    1.04626    0.63518   1.00
H2       0.29680    1.07156    0.63136   1.00
C5       0.30859    1.01717    0.60548   1.00
H2       0.31447    0.97189    0.60289   1.00
H2       0.35153    1.06211    0.59792   1.00
H2       0.26069    1.00902    0.59804   1.00
C5       0.26992    1.04963    0.73609   1.00
H2       0.27673    1.05807    0.75277   1.00
H2       0.21672    1.03684    0.73253   1.00
C5       0.32100    1.11408    0.72443   1.00
H2       0.31896    1.15908    0.73025   1.00
