data_IRMOF10_interpen_symm_ligand11lp_label_e_1.

_audit_creation_method             'generated by an auxiliary program of Tobunporous'

_symmetry_space_group_name_H-M     'P 1'
_symmetry_Int_Tables_number        1
_symmetry_cell_setting             triclinic

_cell_length_a                    22.6523
_cell_length_b                    22.6523
_cell_length_c                    65.9502
_cell_angle_alpha                 90.0000
_cell_angle_beta                  90.0000
_cell_angle_gamma                 120.0000

loop_
_atom_site_label
_atom_site_fract_x
_atom_site_fract_y
_atom_site_fract_z
_atom_site_occupancy
O1       0.00000    -0.00000   0.62500   1.00
Zn1      0.00000    -0.00000   0.59589   1.00
Zn1      0.94848    1.04288    0.63392   1.00
Zn1      0.09439    0.05152    0.63392   1.00
Zn1      -0.04288   0.90561    0.63392   1.00
O2       0.93860    0.02610    0.58587   1.00
O2       0.08750    0.06140    0.58587   1.00
O2       -0.02610   0.91250    0.58587   1.00
O2       0.91305    0.07161    0.61181   1.00
O2       0.00462    0.12022    0.65110   1.00
O2       0.87413    0.98074    0.65071   1.00
O2       0.15856    0.08695    0.61181   1.00
O2       0.10660    0.12587    0.65071   1.00
O2       0.11559    0.99538    0.65110   1.00
O2       -0.07161   0.84144    0.61181   1.00
O2       0.87978    0.88441    0.65110   1.00
O2       0.01926    0.89340    0.65071   1.00
C1       0.91390    0.06020    0.59358   1.00
C1       0.14630    0.08610    0.59358   1.00
C1       -0.06020   0.85370    0.59358   1.00
C1       0.06663    0.14397    0.65673   1.00
C1       0.85603    0.92267    0.65673   1.00
C1       0.07733    0.93337    0.65673   1.00
O1       -0.00000   0.00000    0.87500   1.00
Zn1      -0.00000   0.00000    0.90411   1.00
Zn1      1.04288    0.94848    0.86608   1.00
Zn1      0.05152    0.09439    0.86608   1.00
Zn1      0.90561    -0.04288   0.86608   1.00
O2       0.02610    0.93860    0.91413   1.00
O2       0.06140    0.08750    0.91413   1.00
O2       0.91250    -0.02610   0.91413   1.00
O2       0.07161    0.91305    0.88819   1.00
O2       0.12022    0.00462    0.84890   1.00
O2       0.98074    0.87413    0.84929   1.00
O2       0.08695    0.15856    0.88819   1.00
O2       0.12587    0.10660    0.84929   1.00
O2       0.99538    0.11559    0.84890   1.00
O2       0.84144    -0.07161   0.88819   1.00
O2       0.88441    0.87978    0.84890   1.00
O2       0.89340    0.01926    0.84929   1.00
C1       0.06020    0.91390    0.90642   1.00
C1       0.08610    0.14630    0.90642   1.00
C1       0.85370    -0.06020   0.90642   1.00
C1       0.14397    0.06663    0.84327   1.00
C1       0.92267    0.85603    0.84327   1.00
C1       0.93337    0.07733    0.84327   1.00
O1       0.00000    0.00000    0.37500   1.00
Zn1      0.00000    0.00000    0.40411   1.00
Zn1      0.05152    -0.04288   0.36608   1.00
Zn1      0.90561    0.94848    0.36608   1.00
Zn1      1.04288    0.09439    0.36608   1.00
O2       0.06140    -0.02610   0.41413   1.00
O2       0.91250    0.93860    0.41413   1.00
O2       0.02610    0.08750    0.41413   1.00
O2       0.08695    -0.07161   0.38819   1.00
O2       0.99538    0.87978    0.34890   1.00
O2       0.12587    0.01926    0.34929   1.00
O2       0.84144    0.91305    0.38819   1.00
O2       0.89340    0.87413    0.34929   1.00
O2       0.88441    0.00462    0.34890   1.00
O2       0.07161    0.15856    0.38819   1.00
O2       0.12022    0.11559    0.34890   1.00
O2       0.98074    0.10660    0.34929   1.00
C1       0.08610    -0.06020   0.40642   1.00
C1       0.85370    0.91390    0.40642   1.00
C1       0.06020    0.14630    0.40642   1.00
C1       0.93337    0.85603    0.34327   1.00
C1       0.14397    0.07733    0.34327   1.00
C1       0.92267    0.06663    0.34327   1.00
O1       0.00000    0.00000    0.12500   1.00
Zn1      0.00000    0.00000    0.09589   1.00
Zn1      -0.04288   0.05152    0.13392   1.00
Zn1      0.94848    0.90561    0.13392   1.00
Zn1      0.09439    1.04288    0.13392   1.00
O2       -0.02610   0.06140    0.08587   1.00
O2       0.93860    0.91250    0.08587   1.00
O2       0.08750    0.02610    0.08587   1.00
O2       -0.07161   0.08695    0.11181   1.00
O2       0.87978    0.99538    0.15110   1.00
O2       0.01926    0.12587    0.15071   1.00
O2       0.91305    0.84144    0.11181   1.00
O2       0.87413    0.89340    0.15071   1.00
O2       0.00462    0.88441    0.15110   1.00
O2       0.15856    0.07161    0.11181   1.00
O2       0.11559    0.12022    0.15110   1.00
O2       0.10660    0.98074    0.15071   1.00
C1       -0.06020   0.08610    0.09358   1.00
C1       0.91390    0.85370    0.09358   1.00
C1       0.14630    0.06020    0.09358   1.00
C1       0.85603    0.93337    0.15673   1.00
C1       0.07733    0.14397    0.15673   1.00
C1       0.06663    0.92267    0.15673   1.00
O1       0.66667    0.33333    0.95833   1.00
Zn1      0.66667    0.33333    0.92922   1.00
Zn1      0.61515    0.37621    0.96725   1.00
Zn1      0.76106    0.38485    0.96725   1.00
Zn1      -0.37621   0.23894    0.96725   1.00
O2       0.60527    0.35943    0.91920   1.00
O2       0.75417    0.39473    0.91920   1.00
O2       0.64057    0.24583    0.91920   1.00
O2       0.57972    0.40494    0.94514   1.00
O2       0.67129    0.45355    0.98443   1.00
O2       0.54080    0.31407    0.98404   1.00
O2       0.82523    0.42028    0.94514   1.00
O2       0.77327    0.45920    0.98404   1.00
O2       -0.21774   0.32871    0.98443   1.00
O2       0.59506    0.17477    0.94514   1.00
O2       0.54645    0.21774    0.98443   1.00
O2       -0.31407   0.22673    0.98404   1.00
C1       0.58057    0.39353    0.92691   1.00
C1       0.81297    0.41943    0.92691   1.00
C1       0.60647    0.18703    0.92691   1.00
C1       0.73330    0.47730    0.99006   1.00
C1       0.52270    0.25600    0.99006   1.00
C1       -0.25600   0.26670    0.99006   1.00
O1       0.66667    0.33333    0.20833   1.00
Zn1      0.66667    0.33333    0.23744   1.00
Zn1      0.70954    0.28182    0.19942   1.00
Zn1      0.71818    0.42773    0.19942   1.00
Zn1      0.57227    0.29046    0.19942   1.00
O2       0.69277    0.27193    0.24746   1.00
O2       0.72807    0.42083    0.24746   1.00
O2       0.57917    0.30723    0.24746   1.00
O2       0.73828    0.24638    0.22152   1.00
O2       0.78688    0.33796    0.18224   1.00
O2       0.64740    0.20747    0.18263   1.00
O2       0.75362    0.49189    0.22152   1.00
O2       0.79253    0.43994    0.18263   1.00
O2       0.66204    0.44893    0.18224   1.00
O2       0.50811    0.26172    0.22152   1.00
O2       0.55107    0.21312    0.18224   1.00
O2       0.56006    0.35260    0.18263   1.00
C1       0.72687    0.24723    0.23975   1.00
C1       0.75277    0.47963    0.23975   1.00
C1       0.52037    0.27313    0.23975   1.00
C1       0.81063    0.39997    0.17661   1.00
C1       0.58933    0.18937    0.17661   1.00
C1       0.60003    0.41067    0.17661   1.00
O1       0.66667    0.33333    0.70833   1.00
Zn1      0.66667    0.33333    0.73744   1.00
Zn1      0.71818    0.29046    0.69942   1.00
Zn1      0.57227    0.28182    0.69942   1.00
Zn1      0.70954    0.42773    0.69942   1.00
O2       0.72807    0.30723    0.74746   1.00
O2       0.57917    0.27193    0.74746   1.00
O2       0.69277    0.42083    0.74746   1.00
O2       0.75362    0.26172    0.72152   1.00
O2       0.66204    0.21312    0.68224   1.00
O2       0.79253    0.35260    0.68263   1.00
O2       0.50811    0.24638    0.72152   1.00
O2       0.56006    0.20747    0.68263   1.00
O2       0.55107    0.33796    0.68224   1.00
O2       0.73828    0.49189    0.72152   1.00
O2       0.78688    0.44893    0.68224   1.00
O2       0.64740    0.43994    0.68263   1.00
C1       0.75277    0.27313    0.73975   1.00
C1       0.52037    0.24723    0.73975   1.00
C1       0.72687    0.47963    0.73975   1.00
C1       0.60003    0.18937    0.67661   1.00
C1       0.81063    0.41067    0.67661   1.00
C1       0.58933    0.39997    0.67661   1.00
O1       0.66667    0.33333    0.45833   1.00
Zn1      0.66667    0.33333    0.42922   1.00
Zn1      -0.37621   0.38485    0.46725   1.00
Zn1      0.61515    0.23894    0.46725   1.00
Zn1      0.76106    0.37621    0.46725   1.00
O2       0.64057    0.39473    0.41920   1.00
O2       0.60527    0.24583    0.41920   1.00
O2       0.75417    0.35943    0.41920   1.00
O2       0.59506    0.42028    0.44514   1.00
O2       0.54645    0.32871    0.48443   1.00
O2       -0.31407   0.45920    0.48404   1.00
O2       0.57972    0.17477    0.44514   1.00
O2       0.54080    0.22673    0.48404   1.00
O2       0.67129    0.21774    0.48443   1.00
O2       0.82523    0.40494    0.44514   1.00
O2       -0.21774   0.45355    0.48443   1.00
O2       0.77327    0.31407    0.48404   1.00
C1       0.60647    0.41943    0.42691   1.00
C1       0.58057    0.18703    0.42691   1.00
C1       0.81297    0.39353    0.42691   1.00
C1       0.52270    0.26670    0.49006   1.00
C1       -0.25600   0.47730    0.49006   1.00
C1       0.73330    0.25600    0.49006   1.00
O1       0.33333    0.66667    0.29167   1.00
Zn1      0.33333    0.66667    0.26256   1.00
Zn1      0.28182    0.70954    0.30058   1.00
Zn1      0.42773    0.71818    0.30058   1.00
Zn1      0.29046    0.57227    0.30058   1.00
O2       0.27193    0.69277    0.25254   1.00
O2       0.42083    0.72807    0.25254   1.00
O2       0.30723    0.57917    0.25254   1.00
O2       0.24638    0.73828    0.27848   1.00
O2       0.33796    0.78688    0.31776   1.00
O2       0.20747    0.64740    0.31737   1.00
O2       0.49189    0.75362    0.27848   1.00
O2       0.43994    0.79253    0.31737   1.00
O2       0.44893    0.66204    0.31776   1.00
O2       0.26172    0.50811    0.27848   1.00
O2       0.21312    0.55107    0.31776   1.00
O2       0.35260    0.56006    0.31737   1.00
C1       0.24723    0.72687    0.26025   1.00
C1       0.47963    0.75277    0.26025   1.00
C1       0.27313    0.52037    0.26025   1.00
C1       0.39997    0.81063    0.32339   1.00
C1       0.18937    0.58933    0.32339   1.00
C1       0.41067    0.60003    0.32339   1.00
O1       0.33333    0.66667    0.54167   1.00
Zn1      0.33333    0.66667    0.57078   1.00
Zn1      0.37621    0.61515    0.53275   1.00
Zn1      0.38485    0.76106    0.53275   1.00
Zn1      0.23894    -0.37621   0.53275   1.00
O2       0.35943    0.60527    0.58080   1.00
O2       0.39473    0.75417    0.58080   1.00
O2       0.24583    0.64057    0.58080   1.00
O2       0.40494    0.57972    0.55486   1.00
O2       0.45355    0.67129    0.51557   1.00
O2       0.31407    0.54080    0.51596   1.00
O2       0.42028    0.82523    0.55486   1.00
O2       0.45920    0.77327    0.51596   1.00
O2       0.32871    -0.21774   0.51557   1.00
O2       0.17477    0.59506    0.55486   1.00
O2       0.21774    0.54645    0.51557   1.00
O2       0.22673    -0.31407   0.51596   1.00
C1       0.39353    0.58057    0.57309   1.00
C1       0.41943    0.81297    0.57309   1.00
C1       0.18703    0.60647    0.57309   1.00
C1       0.47730    0.73330    0.50994   1.00
C1       0.25600    0.52270    0.50994   1.00
C1       0.26670    -0.25600   0.50994   1.00
O1       0.33333    0.66667    0.04167   1.00
Zn1      0.33333    0.66667    0.07078   1.00
Zn1      0.38485    -0.37621   0.03275   1.00
Zn1      0.23894    0.61515    0.03275   1.00
Zn1      0.37621    0.76106    0.03275   1.00
O2       0.39473    0.64057    0.08080   1.00
O2       0.24583    0.60527    0.08080   1.00
O2       0.35943    0.75417    0.08080   1.00
O2       0.42028    0.59506    0.05486   1.00
O2       0.32871    0.54645    0.01557   1.00
O2       0.45920    -0.31407   0.01596   1.00
O2       0.17477    0.57972    0.05486   1.00
O2       0.22673    0.54080    0.01596   1.00
O2       0.21774    0.67129    0.01557   1.00
O2       0.40494    0.82523    0.05486   1.00
O2       0.45355    -0.21774   0.01557   1.00
O2       0.31407    0.77327    0.01596   1.00
C1       0.41943    0.60647    0.07309   1.00
C1       0.18703    0.58057    0.07309   1.00
C1       0.39353    0.81297    0.07309   1.00
C1       0.26670    0.52270    0.00994   1.00
C1       0.47730    -0.25600   0.00994   1.00
C1       0.25600    0.73330    0.00994   1.00
O1       0.33333    0.66667    0.79167   1.00
Zn1      0.33333    0.66667    0.76256   1.00
Zn1      0.29046    0.71818    0.80058   1.00
Zn1      0.28182    0.57227    0.80058   1.00
Zn1      0.42773    0.70954    0.80058   1.00
O2       0.30723    0.72807    0.75254   1.00
O2       0.27193    0.57917    0.75254   1.00
O2       0.42083    0.69277    0.75254   1.00
O2       0.26172    0.75362    0.77848   1.00
O2       0.21312    0.66204    0.81776   1.00
O2       0.35260    0.79253    0.81737   1.00
O2       0.24638    0.50811    0.77848   1.00
O2       0.20747    0.56006    0.81737   1.00
O2       0.33796    0.55107    0.81776   1.00
O2       0.49189    0.73828    0.77848   1.00
O2       0.44893    0.78688    0.81776   1.00
O2       0.43994    0.64740    0.81737   1.00
C1       0.27313    0.75277    0.76025   1.00
C1       0.24723    0.52037    0.76025   1.00
C1       0.47963    0.72687    0.76025   1.00
C1       0.18937    0.60003    0.82339   1.00
C1       0.41067    0.81063    0.82339   1.00
C1       0.39997    0.58933    0.82339   1.00
C5       0.11169    0.94432    0.54938   1.00
H2       0.08752    0.97633    0.55101   1.00
H2       0.12058    0.94267    0.53288   1.00
C5       0.18018    0.97772    0.56104   1.00
H2       0.22142    1.01902    0.55186   1.00
H2       0.19481    0.93874    0.56468   1.00
O_3      -0.10027   0.59182    0.55029   1.00
C4       -0.14389   0.68843    0.55074   1.00
C3c      -0.08623   0.75113    0.54582   1.00
H1       -0.06315   0.75827    0.53101   1.00
C3d      -0.17378   0.68052    0.57002   1.00
C3       -0.05693   0.80505    0.55992   1.00
O2       -0.00583   0.86741    0.55322   1.00
C3       -0.14395   0.73365    0.58422   1.00
H1       -0.16723   0.72438    0.59906   1.00
C2       -0.08520   0.79714    0.57958   1.00
C5       -0.12934   0.54352    0.56608   1.00
H2       -0.15582   0.49010    0.56030   1.00
H2       -0.16685   0.55136    0.57495   1.00
C5       -0.07187   0.55293    0.58004   1.00
H2       -0.04420   0.60684    0.58537   1.00
H2       -0.03508   0.54436    0.57108   1.00
C5       -0.09942   0.50380    0.59811   1.00
H2       -0.12753   0.44989    0.59289   1.00
H2       -0.13433   0.51390    0.60747   1.00
H2       -0.05655   0.51039    0.60790   1.00
C5       -0.28958   0.61317    0.57017   1.00
C5       0.05844    0.87340    0.55693   1.00
H2       -0.29296   0.61539    0.55339   1.00
H2       -0.29620   0.65463    0.57697   1.00
H2       0.06295    0.83323    0.54842   1.00
H2       0.06678    0.86752    0.57336   1.00
H2       0.17681    1.00211    0.57540   1.00
H2       -0.41476   0.51364    0.55089   1.00
H2       -0.42743   0.56696    0.56895   1.00
C2       -0.23074   0.52006    0.50937   1.00
C3       -0.25078   0.56988    0.50860   1.00
O2       -0.30928   0.55690    0.49841   1.00
C3       -0.17938   0.52917    0.52334   1.00
H1       -0.16166   0.49289    0.52394   1.00
C3a      -0.22078   0.62603    0.52197   1.00
H1       -0.23944   0.66164    0.52199   1.00
C3b      -0.15123   0.58390    0.53706   1.00
C4       -0.17195   0.63282    0.53649   1.00
O_3      -0.22739   0.61821    0.57615   1.00
C5       -0.29262   0.58992    0.47940   1.00
H2       -0.25961   0.64628    0.48114   1.00
C5       -0.35978   0.57406    0.46925   1.00
H2       -0.26552   0.57074    0.46967   1.00
H2       -0.37683   0.60835    0.47582   1.00
H2       -0.39877   0.52112    0.47361   1.00
C5       -0.35407   0.58145    0.44597   1.00
H2       -0.31136   0.63279    0.44190   1.00
H2       -0.40208   0.57517    0.43932   1.00
H2       -0.34551   0.54144    0.43892   1.00
C5       -0.34692   0.54460    0.57755   1.00
H2       -0.35084   0.54689    0.59433   1.00
H2       -0.33249   0.50519    0.57428   1.00
C5       -0.41539   0.52520    0.56732   1.00
H2       -0.45716   0.47871    0.57455   1.00
C5       0.13410    0.27035    0.57568   1.00
H2       0.08631    0.22293    0.57164   1.00
H2       0.14613    0.30515    0.56252   1.00
C5       0.12216    0.30211    0.59493   1.00
H2       0.09691    0.33203    0.59102   1.00
H2       0.17167    0.33629    0.60252   1.00
O_3      0.44084    0.27416    0.56221   1.00
C4       0.31130    0.16776    0.55064   1.00
C3c      0.26739    0.19465    0.55194   1.00
H1       0.27508    0.23593    0.54202   1.00
C3d      0.29980    0.11333    0.56350   1.00
C3       0.21375    0.16962    0.56614   1.00
O2       0.16798    0.19266    0.56484   1.00
C3       0.24724    0.08917    0.57792   1.00
H1       0.24189    0.04900    0.58794   1.00
C2       0.20283    0.11628    0.57958   1.00
C5       0.47699    0.25126    0.57425   1.00
H2       0.52820    0.26646    0.56784   1.00
H2       0.44806    0.19462    0.57584   1.00
C5       0.48659    0.28343    0.59510   1.00
H2       0.43552    0.26983    0.60127   1.00
H2       0.51606    0.33995    0.59335   1.00
C5       0.52350    0.25923    0.60945   1.00
H2       0.57434    0.27222    0.60331   1.00
H2       0.49298    0.20308    0.61176   1.00
H2       0.53139    0.28442    0.62447   1.00
C5       0.32493    0.03685    0.54915   1.00
C5       0.18834    0.24925    0.57785   1.00
H2       0.32719    0.05704    0.53362   1.00
H2       0.27225    -0.00625   0.55194   1.00
H2       0.23927    0.29193    0.57315   1.00
H2       0.19258    0.23699    0.59403   1.00
H2       0.08750    0.26181    0.60584   1.00
H2       0.38982    0.00009    0.51782   1.00
H2       0.31672    -0.07352   0.52902   1.00
C2       0.47988    0.24674    0.50938   1.00
C3       0.41455    0.19589    0.50291   1.00
O2       0.40714    0.15929    0.48543   1.00
C3       0.48710    0.27281    0.52930   1.00
H1       0.53606    0.31299    0.53453   1.00
C3a      0.35894    0.17123    0.51646   1.00
H1       0.31011    0.12959    0.51166   1.00
C3b      0.43217    0.24665    0.54294   1.00
C4       0.36748    0.19537    0.53659   1.00
O_3      0.34460    0.08853    0.56389   1.00
C5       0.38408    0.18392    0.46941   1.00
H2       0.33393    0.17957    0.47310   1.00
C5       0.37608    0.14019    0.45078   1.00
H2       0.42160    0.23833    0.46604   1.00
H2       0.32700    0.09125    0.45211   1.00
H2       0.41738    0.12711    0.45138   1.00
C5       0.37893    0.17612    0.43063   1.00
H2       0.34100    0.19360    0.43094   1.00
H2       0.36723    0.14079    0.41757   1.00
H2       0.43093    0.22069    0.42784   1.00
C5       0.37474    0.01033    0.55040   1.00
H2       0.36411    -0.02018   0.56456   1.00
H2       0.42725    0.05489    0.55186   1.00
C5       0.37023    -0.03237   0.53168   1.00
H2       0.40188    -0.05666   0.53406   1.00
C5       0.74319    0.03585    0.63165   1.00
H2       0.73673    -0.01500   0.62812   1.00
H2       0.69172    0.03012    0.63013   1.00
C5       0.76980    0.05617    0.65361   1.00
H2       0.72721    0.03145    0.66472   1.00
H2       0.79516    0.11251    0.65543   1.00
O_3      0.86446    0.27956    0.55490   1.00
C4       0.83144    0.14272    0.55063   1.00
C3c      0.79521    0.10926    0.56823   1.00
H1       0.74632    0.10506    0.57123   1.00
C3d      0.89460    0.14678    0.54685   1.00
C3       0.82164    0.08168    0.58232   1.00
O2       0.77976    0.04256    0.59786   1.00
C3       0.92165    0.12052    0.56104   1.00
H1       0.97137    0.12698    0.55784   1.00
C2       0.88604    0.08719    0.57902   1.00
C5       0.93064    0.32599    0.54781   1.00
H2       0.93040    0.36190    0.53629   1.00
H2       0.95522    0.29864    0.54091   1.00
C5       0.97264    0.36710    0.56590   1.00
H2       0.97130    0.33109    0.57766   1.00
H2       0.94800    0.39468    0.57256   1.00
C5       1.04635    0.41741    0.55965   1.00
H2       1.04805    0.45322    0.54781   1.00
H2       1.07176    0.38978    0.55365   1.00
H2       1.07586    0.44803    0.57298   1.00
C5       0.91623    0.14103    0.51333   1.00
C5       0.79068    0.08366    0.61517   1.00
H2       0.86229    0.12224    0.50895   1.00
H2       0.92320    0.09622    0.51598   1.00
H2       0.77782    0.12416    0.61170   1.00
H2       0.84486    0.10964    0.62047   1.00
H2       0.80670    0.03879    0.65758   1.00
H2       0.88736    0.14819    0.47101   1.00
H2       0.92572    0.09543    0.47543   1.00
C2       0.75740    0.23430    0.50838   1.00
C3       0.73725    0.16460    0.50658   1.00
O2       0.70837    0.12985    0.48882   1.00
C3       0.79941    0.27151    0.52493   1.00
H1       0.81428    0.32448    0.52703   1.00
C3a      0.76062    0.13442    0.52083   1.00
H1       0.74793    0.08207    0.51858   1.00
C3b      0.82434    0.24191    0.53870   1.00
C4       0.80513    0.17291    0.53670   1.00
O_3      0.93460    0.18362    0.53055   1.00
C5       0.63707    0.08904    0.49105   1.00
H2       0.62364    0.05103    0.50351   1.00
C5       0.60917    0.05150    0.47093   1.00
H2       0.61350    0.12097    0.49439   1.00
H2       0.61770    0.00718    0.47043   1.00
H2       0.64061    0.08664    0.45854   1.00
C5       0.53307    0.02788    0.46775   1.00
H2       0.50316    -0.00267   0.48102   1.00
H2       0.51325    -0.00405   0.45384   1.00
H2       0.52483    0.07224    0.46563   1.00
C5       0.96227    0.18324    0.49595   1.00
H2       1.01452    0.19199    0.49881   1.00
H2       0.96592    0.23416    0.49617   1.00
C5       0.93531    0.14865    0.47525   1.00
H2       0.97355    0.17713    0.46324   1.00
C5       0.69162    -0.11170   0.86207   1.00
H2       0.72631    -0.05562   0.86237   1.00
H2       0.63917    -0.11961   0.86113   1.00
C5       0.70735    -0.14205   0.84318   1.00
H2       0.68238    -0.13588   0.82943   1.00
H2       0.68878    -0.19725   0.84558   1.00
O_3      0.61178    -0.28508   0.95415   1.00
C4       0.68858    -0.14261   0.94933   1.00
C3c      0.67888    -0.12980   0.92912   1.00
H1       0.62867    -0.14192   0.92403   1.00
C3d      0.75461    -0.12552   0.95573   1.00
C3       0.73317    -0.10222   0.91512   1.00
O2       0.72163    -0.08340   0.89635   1.00
C3       0.80851    -0.09928   0.94174   1.00
H1       0.85773    -0.08922   0.94716   1.00
C2       0.79944    -0.08670   0.92118   1.00
C5       0.64538    -0.31085   0.96619   1.00
H2       0.61352    -0.34162   0.97924   1.00
H2       0.69438    -0.26869   0.97230   1.00
C5       0.66028    -0.35646   0.95280   1.00
H2       0.69049    -0.32622   0.93947   1.00
H2       0.61097    -0.39870   0.94695   1.00
C5       0.69911    -0.38483   0.96457   1.00
H2       0.66944    -0.41468   0.97798   1.00
H2       0.74939    -0.34278   0.96981   1.00
H2       0.70821    -0.41922   0.95466   1.00
C5       0.77850    -0.08827   0.98845   1.00
C5       0.70200    -0.13764   0.88245   1.00
H2       0.73377    -0.08059   0.98945   1.00
H2       0.82394    -0.03931   0.98370   1.00
H2       0.65351    -0.18305   0.88751   1.00
H2       0.74114    -0.15376   0.88099   1.00
H2       0.76327    -0.11507   0.83989   1.00
H2       0.73442    -0.07363   1.02831   1.00
H2       0.82150    -0.00798   1.02269   1.00
C2       0.52415    -0.23343   0.99198   1.00
C3       0.55963    -0.16212   0.98904   1.00
O2       0.55402    -0.11980   1.00300   1.00
C3       0.54209    -0.27363   0.97986   1.00
H1       0.51474    -0.32850   0.98138   1.00
C3a      0.61274    -0.13274   0.97462   1.00
H1       0.64197    -0.07780   0.97337   1.00
C3b      0.59636    -0.24408   0.96600   1.00
C4       0.63227    -0.17311   0.96331   1.00
O_3      0.76587    -0.14186   0.97503   1.00
C5       0.50937    -0.09811   0.99572   1.00
H2       0.52797    -0.06980   0.98110   1.00
C5       0.50682    -0.05073   1.01182   1.00
H2       0.45714    -0.14236   0.99333   1.00
H2       0.55312    0.00047    1.01019   1.00
H2       0.51058    -0.07063   1.02693   1.00
C5       0.44174    -0.04524   1.01051   1.00
H2       0.43599    -0.03055   0.99486   1.00
H2       0.44437    -0.00613   1.02129   1.00
H2       0.39535    -0.09448   1.01467   1.00
C5       0.79181    -0.10788   1.00933   1.00
H2       0.84281    -0.10401   1.00917   1.00
H2       0.75346    -0.16246   1.01209   1.00
C5       0.78777    -0.06301   1.02620   1.00
H2       0.80465    -0.07390   1.04086   1.00
C5       0.27132    0.13530    0.92391   1.00
H2       0.22414    0.08737    0.92800   1.00
H2       0.30641    0.14752    0.93701   1.00
C5       0.30290    0.12359    0.90458   1.00
H2       0.33315    0.09861    0.90840   1.00
H2       0.33672    0.17315    0.89696   1.00
O_3      0.27345    0.44109    0.93769   1.00
C4       0.16776    0.31130    0.94936   1.00
C3c      0.19499    0.26770    0.94796   1.00
H1       0.23654    0.27564    0.95779   1.00
C3d      0.11299    0.29947    0.93661   1.00
C3       0.16996    0.21406    0.93376   1.00
O2       0.19338    0.16859    0.93496   1.00
C3       0.08881    0.24692    0.92219   1.00
H1       0.04836    0.24132    0.91225   1.00
C2       0.11626    0.20282    0.92042   1.00
C5       0.25003    0.47697    0.92574   1.00
H2       0.26507    0.52812    0.93217   1.00
H2       0.19336    0.44778    0.92424   1.00
C5       0.28184    0.48673    0.90483   1.00
H2       0.26840    0.43573    0.89864   1.00
H2       0.33838    0.51647    0.90649   1.00
C5       0.25705    0.52336    0.89057   1.00
H2       0.26988    0.57413    0.89674   1.00
H2       0.20088    0.49258    0.88836   1.00
H2       0.28199    0.53137    0.87551   1.00
C5       0.03639    0.32405    0.95115   1.00
C5       0.24977    0.18923    0.92185   1.00
H2       0.05691    0.32645    0.96664   1.00
H2       -0.00657   0.27126    0.94840   1.00
H2       0.29235    0.24027    0.92650   1.00
H2       0.23714    0.19337    0.90569   1.00
H2       0.26248    0.08877    0.89372   1.00
H2       -0.00030   0.38853    0.98263   1.00
H2       -0.07390   0.31518    0.97152   1.00
C2       0.24670    0.47988    0.99062   1.00
C3       0.19623    0.41443    0.99713   1.00
O2       0.15990    0.40682    1.01468   1.00
C3       0.27243    0.48722    0.97066   1.00
H1       0.31233    0.53628    0.96538   1.00
C3a      0.17159    0.35883    0.98358   1.00
H1       0.13022    0.30989    0.98842   1.00
C3b      0.24628    0.43229    0.95701   1.00
C4       0.19537    0.36748    0.96341   1.00
O_3      0.08782    0.34398    0.93632   1.00
C5       0.18505    0.38401    1.03063   1.00
H2       0.18094    0.33399    1.02689   1.00
C5       0.14160    0.37577    1.04935   1.00
H2       0.23946    0.42175    1.03392   1.00
H2       0.09278    0.32654    1.04807   1.00
H2       0.12820    0.41685    1.04882   1.00
C5       0.17800    0.37885    1.06942   1.00
H2       0.19577    0.34115    1.06903   1.00
H2       0.14288    0.36698    1.08255   1.00
H2       0.22244    0.43097    1.07217   1.00
C5       0.00944    0.37354    0.95001   1.00
H2       -0.02137   0.36274    0.93591   1.00
H2       0.05377    0.42616    0.94851   1.00
C5       -0.03301   0.36878    0.96883   1.00
H2       -0.05762   0.40017    0.96653   1.00
C5       0.03603    0.74331    0.86833   1.00
H2       -0.01484   0.73681    0.87185   1.00
H2       0.03032    0.69185    0.86984   1.00
C5       0.05638    0.76997    0.84637   1.00
H2       0.03170    0.72740    0.83526   1.00
H2       0.11272    0.79537    0.84456   1.00
O_3      0.27959    0.86455    0.94512   1.00
C4       0.14272    0.83144    0.94937   1.00
C3c      0.10931    0.79524    0.93176   1.00
H1       0.10514    0.74637    0.92875   1.00
C3d      0.14673    0.89457    0.95316   1.00
C3       0.08173    0.82167    0.91768   1.00
O2       0.04265    0.77980    0.90212   1.00
C3       0.12047    0.92163    0.93897   1.00
H1       0.12689    0.97132    0.94217   1.00
C2       0.08719    0.88604    0.92098   1.00
C5       0.32597    0.93072    0.95222   1.00
H2       0.36188    0.93048    0.96374   1.00
H2       0.29859    0.95526    0.95913   1.00
C5       0.36711    0.97278    0.93414   1.00
H2       0.33112    0.97143    0.92238   1.00
H2       0.39472    0.94817    0.92748   1.00
C5       0.41737    1.04648    0.94041   1.00
H2       0.45317    1.04818    0.95225   1.00
H2       0.38971    1.07185    0.94640   1.00
H2       0.44802    1.07603    0.92709   1.00
C5       0.14090    0.91612    0.98668   1.00
C5       0.08379    0.79078    0.88482   1.00
H2       0.12213    0.86218    0.99105   1.00
H2       0.09608    0.92307    0.98403   1.00
H2       0.12431    0.77795    0.88829   1.00
H2       0.10976    0.84498    0.87953   1.00
H2       0.03898    0.80685    0.84241   1.00
H2       0.14800    0.88718    1.02899   1.00
H2       0.09520    0.92550    1.02458   1.00
C2       0.23430    0.75740    0.99162   1.00
C3       0.16459    0.73720    0.99341   1.00
O2       0.12981    0.70828    1.01117   1.00
C3       0.27152    0.79946    0.97508   1.00
H1       0.32450    0.81436    0.97298   1.00
C3a      0.13440    0.76058    0.97916   1.00
H1       0.08205    0.74786    0.98140   1.00
C3b      0.24193    0.82439    0.96131   1.00
C4       0.17291    0.80513    0.96330   1.00
O_3      0.18353    0.93456    0.96947   1.00
C5       0.08903    0.63697    1.00892   1.00
H2       0.05104    0.62356    0.99645   1.00
C5       0.05146    0.60902    1.02903   1.00
H2       0.12100    0.61344    1.00558   1.00
H2       0.00712    0.61752    1.02953   1.00
H2       0.08657    0.64046    1.04143   1.00
C5       0.02789    0.53292    1.03220   1.00
H2       -0.00263   0.50304    1.01892   1.00
H2       -0.00407   0.51307    1.04610   1.00
H2       0.07226    0.52471    1.03433   1.00
C5       0.18306    0.96214    1.00407   1.00
H2       0.19178    1.01438    1.00121   1.00
H2       0.23400    0.96583    1.00385   1.00
C5       0.14844    0.93513    1.02476   1.00
H2       0.17688    0.97335    1.03679   1.00
C5       -0.03846   0.02244    0.46097   1.00
H2       -0.07796   0.01933    0.45035   1.00
H2       -0.05532   0.02772    0.47635   1.00
C5       -0.03462   -0.04378   0.45954   1.00
H2       -0.07564   -0.08518   0.46875   1.00
H2       0.01580    -0.03432   0.46510   1.00
O_3      0.25797    0.33661    0.47201   1.00
C4       0.14292    0.31201    0.44912   1.00
C3c      0.09077    0.24681    0.45482   1.00
H1       0.07180    0.23781    0.47021   1.00
C3d      0.16623    0.32291    0.42891   1.00
C3       0.06302    0.19218    0.44094   1.00
O2       0.00665    0.13222    0.44690   1.00
C3       0.13962    0.26831    0.41516   1.00
H1       0.16078    0.27854    0.40002   1.00
C2       0.08739    0.20187    0.42073   1.00
C5       0.31911    0.37036    0.46075   1.00
H2       0.35820    0.41805    0.46832   1.00
H2       0.30974    0.38379    0.44526   1.00
C5       0.34721    0.32211    0.45889   1.00
H2       0.30742    0.27370    0.45185   1.00
H2       0.35697    0.30956    0.47444   1.00
C5       0.41272    0.35401    0.44619   1.00
H2       0.45251    0.40262    0.45306   1.00
H2       0.40253    0.36438    0.43046   1.00
H2       0.43331    0.31862    0.44538   1.00
C5       0.19713    0.42878    0.41675   1.00
C5       0.02721    0.08773    0.45518   1.00
H2       0.17166    0.43966    0.42946   1.00
H2       0.16055    0.40693    0.40385   1.00
H2       0.05950    0.11120    0.46889   1.00
H2       0.05772    0.07598    0.44425   1.00
H2       -0.04239   -0.06312   0.44360   1.00
H2       0.23291    0.56889    0.42340   1.00
H2       0.19665    0.53778    0.39842   1.00
C2       0.23465    0.47817    0.49118   1.00
C3       0.17484    0.46459    0.48066   1.00
O2       0.15504    0.51310    0.47978   1.00
C3       0.26097    0.43380    0.48820   1.00
H1       0.30566    0.44176    0.49642   1.00
C3a      0.14404    0.40880    0.46717   1.00
H1       0.10057    0.40139    0.45837   1.00
C3b      0.23149    0.37967    0.47429   1.00
C4       0.17265    0.36686    0.46361   1.00
O_3      0.22094    0.38472    0.42294   1.00
C5       0.10138    0.49687    0.49356   1.00
H2       0.05616    0.44605    0.49009   1.00
C5       0.08170    0.55214    0.49143   1.00
H2       0.11789    0.49626    0.50945   1.00
H2       0.04873    0.54056    0.47778   1.00
H2       0.12931    0.60117    0.48828   1.00
C5       0.04543    0.55862    0.51038   1.00
H2       0.00114    0.50800    0.51424   1.00
H2       0.02687    0.59511    0.50763   1.00
H2       0.08084    0.57868    0.52366   1.00
C5       0.25872    0.49543    0.40998   1.00
H2       0.27701    0.48662    0.39522   1.00
H2       0.30047    0.50934    0.42119   1.00
C5       0.24217    0.55341    0.40819   1.00
H2       0.28588    0.59902    0.40123   1.00
C5       0.73953    0.70594    0.38015   1.00
H2       0.74434    0.74529    0.36917   1.00
H2       0.68611    0.66336    0.37885   1.00
C5       0.79000    0.68140    0.37437   1.00
H2       0.76873    0.64275    0.36202   1.00
H2       0.80070    0.65853    0.38782   1.00
O_3      0.68436    0.74934    0.48155   1.00
C4       0.68812    0.83213    0.44915   1.00
C3c      0.68492    0.79640    0.43140   1.00
H1       0.63974    0.74809    0.42821   1.00
C3d      0.74707    0.89547    0.45288   1.00
C3       0.73992    0.82168    0.41767   1.00
O2       0.72991    0.78818    0.39947   1.00
C3       0.80243    0.92015    0.43944   1.00
H1       0.84749    0.96778    0.44330   1.00
C2       0.80034    0.88432    0.42152   1.00
C5       0.72849    0.78730    0.49756   1.00
H2       0.70135    0.77662    0.51239   1.00
H2       0.75337    0.84318    0.49456   1.00
C5       0.78306    0.76717    0.49914   1.00
H2       0.80890    0.77604    0.48416   1.00
H2       0.75770    0.71143    0.50233   1.00
C5       0.83485    0.80802    0.51580   1.00
H2       0.80932    0.79978    0.53078   1.00
H2       0.86189    0.86351    0.51227   1.00
H2       0.87346    0.79155    0.51703   1.00
C5       0.72635    0.97277    0.46877   1.00
C5       0.75130    0.73943    0.40106   1.00
H2       0.67069    0.94257    0.46564   1.00
H2       0.75140    1.01069    0.45632   1.00
H2       0.72045    0.70051    0.41277   1.00
H2       0.80614    0.76277    0.40552   1.00
H2       0.83901    0.72440    0.36847   1.00
H2       0.63751    1.00503    0.49173   1.00
H2       0.69990    1.07664    0.47680   1.00
C2       0.52576    0.75432    0.49259   1.00
C3       0.52472    0.79272    0.47586   1.00
O2       0.48214    0.81993    0.47587   1.00
C3       0.57950    0.73969    0.49398   1.00
H1       0.58081    0.70894    0.50631   1.00
C3a      0.57761    0.81686    0.46137   1.00
H1       0.57817    0.84944    0.44929   1.00
C3b      0.63317    0.76561    0.47990   1.00
C4       0.63263    0.80465    0.46345   1.00
O_3      0.75485    0.93013    0.47087   1.00
C5       0.42442    0.78015    0.46366   1.00
H2       0.43936    0.77788    0.44766   1.00
C5       0.38058    0.81414    0.46418   1.00
H2       0.39435    0.72713    0.46963   1.00
H2       0.40287    0.85806    0.45348   1.00
H2       0.38529    0.83586    0.47965   1.00
C5       0.30515    0.76459    0.45896   1.00
H2       0.30177    0.73936    0.44420   1.00
H2       0.27622    0.79230    0.45782   1.00
H2       0.27965    0.72499    0.47101   1.00
C5       0.73720    1.01068    0.48872   1.00
H2       0.79227    1.04953    0.49010   1.00
H2       0.72504    0.97369    0.50137   1.00
C5       0.69262    1.04417    0.49029   1.00
H2       0.70698    1.07709    0.50399   1.00
C5       0.23703    0.13639    0.43567   1.00
H2       0.24932    0.13650    0.41937   1.00
H2       0.28655    0.15911    0.44382   1.00
C5       0.20304    0.18038    0.43884   1.00
H2       0.24213    0.23551    0.43962   1.00
H2       0.17293    0.16533    0.45315   1.00
O_3      0.12250    -0.16602   0.48948   1.00
C4       0.16866    -0.14355   0.44905   1.00
C3c      0.20060    -0.07277   0.44603   1.00
H1       0.24612    -0.03920   0.45451   1.00
C3d      0.10996    -0.18646   0.43765   1.00
C3       0.17405    -0.04415   0.43235   1.00
O2       0.21253    0.02459    0.42838   1.00
C3       0.08266    -0.15804   0.42430   1.00
H1       0.03620    -0.19283   0.41642   1.00
C2       0.11389    -0.08654   0.42123   1.00
C5       0.05775    -0.22488   0.49170   1.00
H2       0.05800    -0.26082   0.50321   1.00
H2       0.03952    -0.25277   0.47702   1.00
C5       0.00839    -0.20195   0.49864   1.00
H2       0.00958    -0.16456   0.48743   1.00
H2       0.02675    -0.17474   0.51340   1.00
C5       -0.06410   -0.26286   0.50075   1.00
H2       -0.06557   -0.30064   0.51182   1.00
H2       -0.08337   -0.28864   0.48587   1.00
H2       -0.09915   -0.24529   0.50626   1.00
C5       0.10069    -0.28836   0.42909   1.00
C5       0.19269    0.06115    0.44143   1.00
H2       0.15475    -0.27058   0.43308   1.00
H2       0.09778    -0.27896   0.41260   1.00
H2       0.20183    0.05306    0.45756   1.00
H2       0.13740    0.04484    0.43991   1.00
H2       0.16878    0.17471    0.42587   1.00
H2       0.14045    -0.39034   0.43434   1.00
H2       0.10823    -0.39104   0.40904   1.00
C2       0.24247    -0.23313   0.49207   1.00
C3       0.26900    -0.21898   0.47217   1.00
O2       0.30526    -0.24848   0.46482   1.00
C3       0.19398    -0.21395   0.49757   1.00
H1       0.17400    -0.22246   0.51284   1.00
C3a      0.24554    -0.18803   0.45822   1.00
H1       0.26344    -0.18110   0.44272   1.00
C3b      0.16914    -0.18518   0.48348   1.00
C4       0.19478    -0.17211   0.46361   1.00
O_3      0.07371    -0.25601   0.44116   1.00
C5       0.37579    -0.20100   0.46519   1.00
H2       0.38833    -0.15527   0.45575   1.00
C5       0.41215    -0.23708   0.45654   1.00
H2       0.39374    -0.18395   0.48099   1.00
H2       0.40871    -0.23715   0.43969   1.00
H2       0.38290    -0.29139   0.46144   1.00
C5       0.48718    -0.20417   0.46336   1.00
H2       0.51423    -0.14880   0.45978   1.00
H2       0.51340    -0.22807   0.45544   1.00
H2       0.49116    -0.21142   0.47998   1.00
C5       0.05856    -0.36462   0.43316   1.00
H2       0.00758    -0.38442   0.42598   1.00
H2       0.04995    -0.37234   0.44982   1.00
C5       0.09391    -0.40316   0.42528   1.00
H2       0.05882    -0.45904   0.42659   1.00
C5       0.30191    0.06908    0.13520   1.00
H2       0.28060    0.10109    0.14055   1.00
H2       0.35786    0.10004    0.13762   1.00
C5       0.27151    0.00278    0.14790   1.00
H2       0.29879    0.01189    0.16262   1.00
H2       0.27558    -0.03747   0.13938   1.00
O_3      0.35413    0.06059    0.03146   1.00
C4       0.31162    0.14393    0.05076   1.00
C3c      0.32274    0.14046    0.07157   1.00
H1       0.37413    0.16034    0.07715   1.00
C3d      0.24434    0.11862    0.04383   1.00
C3       0.26810    0.11063    0.08541   1.00
O2       0.28341    0.11655    0.10578   1.00
C3       0.18973    0.08771    0.05752   1.00
H1       0.13887    0.06684    0.05140   1.00
C2       0.20001    0.08311    0.07859   1.00
C5       0.31083    0.02242    0.01532   1.00
H2       0.33925    0.03055    0.00082   1.00
H2       0.27027    0.03591    0.01278   1.00
C5       0.27762    -0.05252   0.02098   1.00
H2       0.25082    -0.06030   0.03576   1.00
H2       0.31853    -0.06557   0.02329   1.00
C5       0.22762    -0.09775   0.00450   1.00
H2       0.25395    -0.08989   -0.01033   1.00
H2       0.18544    -0.08639   0.00268   1.00
H2       0.20500    -0.15239   0.00870   1.00
C5       0.23516    0.17824    0.01731   1.00
C5       0.28599    0.05858    0.11248   1.00
H2       0.28767    0.22180    0.01960   1.00
H2       0.19872    0.18854    0.02586   1.00
H2       0.32700    0.05468    0.10427   1.00
H2       0.23703    0.00998    0.10980   1.00
H2       0.21681    -0.01609   0.15170   1.00
H2       0.29618    0.27515    -0.01540   1.00
H2       0.21824    0.26975    -0.00591   1.00
C2       0.47487    0.22701    0.00760   1.00
C3       0.45680    0.27036    0.01790   1.00
O2       0.47872    0.33543    0.01082   1.00
C3       0.44018    0.15688    0.01266   1.00
H1       0.45401    0.12267    0.00543   1.00
C3a      0.40398    0.24282    0.03243   1.00
H1       0.38812    0.27597    0.03933   1.00
C3b      0.38621    0.12929    0.02664   1.00
C4       0.36760    0.17226    0.03663   1.00
O_3      0.23022    0.11613    0.02332   1.00
C5       0.53398    0.38357    0.02258   1.00
H2       0.51930    0.38117    0.03885   1.00
C5       0.55443    0.45410    0.01403   1.00
H2       0.57816    0.37483    0.02157   1.00
H2       0.51828    0.46980    0.01995   1.00
H2       0.54682    0.44865    -0.00270   1.00
C5       0.62857    0.50825    0.01917   1.00
H2       0.63668    0.50918    0.03582   1.00
H2       0.63970    0.55982    0.01420   1.00
H2       0.66587    0.49770    0.01117   1.00
C5       0.21803    0.17267    -0.00518   1.00
H2       0.16225    0.13731    -0.00704   1.00
H2       0.24445    0.14870    -0.01298   1.00
C5       0.23951    0.24266    -0.01469   1.00
H2       0.21995    0.23594    -0.03047   1.00
C5       0.71842    0.72447    0.12531   1.00
H2       0.76277    0.73372    0.13479   1.00
H2       0.68020    0.66957    0.12719   1.00
C5       0.68927    0.76931    0.13301   1.00
H2       0.65544    0.74539    0.14635   1.00
H2       0.65959    0.77640    0.12074   1.00
O_3      0.73500    0.67441    0.02177   1.00
C4       0.83220    0.68819    0.05082   1.00
C3c      0.80131    0.68173    0.06979   1.00
H1       0.75685    0.63398    0.07393   1.00
C3d      0.89067    0.75053    0.04584   1.00
C3       0.82644    0.73664    0.08354   1.00
O2       0.79877    0.72405    0.10272   1.00
C3       0.91504    0.80570    0.05934   1.00
H1       0.95856    0.85324    0.05456   1.00
C2       0.88397    0.80028    0.07849   1.00
C5       0.76435    0.71963    0.00527   1.00
H2       0.75107    0.69249    -0.00959   1.00
H2       0.82106    0.74933    0.00658   1.00
C5       0.73684    0.76858    0.00557   1.00
H2       0.74843    0.79431    0.02063   1.00
H2       0.68027    0.73844    0.00406   1.00
C5       0.76816    0.82130    -0.01153   1.00
H2       0.75719    0.79594    -0.02661   1.00
H2       0.82440    0.85301    -0.00964   1.00
H2       0.74632    0.85568    -0.01134   1.00
C5       0.96824    0.73923    0.02664   1.00
C5       0.74495    0.73864    0.10347   1.00
H2       0.94383    0.68367    0.02981   1.00
H2       1.00940    0.76738    0.03804   1.00
H2       0.70364    0.70495    0.09272   1.00
H2       0.76184    0.79263    0.09922   1.00
H2       0.73087    0.82034    0.13818   1.00
H2       1.00376    0.65869    0.00080   1.00
H2       1.07690    0.72576    0.01411   1.00
C2       0.75370    0.52566    0.00744   1.00
C3       0.79967    0.52948    0.02255   1.00
O2       0.83274    0.49253    0.02064   1.00
C3       0.73208    0.57446    0.00770   1.00
H1       0.69558    0.57188    -0.00334   1.00
C3a      0.82410    0.58231    0.03707   1.00
H1       0.86222    0.58684    0.04782   1.00
C3b      0.75814    0.62820    0.02176   1.00
C4       0.80464    0.63256    0.03658   1.00
O_3      0.91987    0.76117    0.02678   1.00
C5       0.80165    0.43423    0.03316   1.00
H2       0.80315    0.44850    0.04944   1.00
C5       0.84177    0.39684    0.03045   1.00
H2       0.74749    0.39987    0.02868   1.00
H2       0.88890    0.42301    0.03982   1.00
H2       0.85864    0.40322    0.01433   1.00
C5       0.80001    0.32060    0.03605   1.00
H2       0.77908    0.31505    0.05162   1.00
H2       0.83250    0.29656    0.03553   1.00
H2       0.75729    0.29186    0.02511   1.00
C5       0.99982    0.75306    0.00556   1.00
H2       1.03394    0.80909    0.00379   1.00
H2       0.95817    0.73711    -0.00581   1.00
C5       1.03913    0.71488    0.00181   1.00
H2       1.06726    0.73163    -0.01279   1.00
C5       0.13635    0.23677    0.06425   1.00
H2       0.13654    0.24913    0.08056   1.00
H2       0.15909    0.28627    0.05609   1.00
C5       0.18026    0.20270    0.06109   1.00
H2       0.23540    0.24175    0.06029   1.00
H2       0.16513    0.17254    0.04678   1.00
O_3      -0.16621   0.12235    0.01054   1.00
C4       -0.14354   0.16866    0.05095   1.00
C3c      -0.07276   0.20054    0.05394   1.00
H1       -0.03919   0.24602    0.04546   1.00
C3d      -0.18646   0.11002    0.06237   1.00
C3       -0.04414   0.17399    0.06763   1.00
O2       0.02461    0.21243    0.07157   1.00
C3       -0.15805   0.08271    0.07572   1.00
H1       -0.19285   0.03630    0.08362   1.00
C2       -0.08654   0.11389    0.07877   1.00
C5       -0.22512   0.05763    0.00834   1.00
H2       -0.26108   0.05788    -0.00316   1.00
H2       -0.25296   0.03947    0.02303   1.00
C5       -0.20229   0.00818    0.00141   1.00
H2       -0.16487   0.00936    0.01261   1.00
H2       -0.17513   0.02646    -0.01336   1.00
C5       -0.26326   -0.06429   -0.00067   1.00
H2       -0.30106   -0.06575   -0.01173   1.00
H2       -0.28900   -0.08348   0.01421   1.00
H2       -0.24576   -0.09939   -0.00618   1.00
C5       -0.28828   0.10090    0.07096   1.00
C5       0.06108    0.19248    0.05852   1.00
H2       -0.27046   0.15495    0.06695   1.00
H2       -0.27883   0.09804    0.08744   1.00
H2       0.05295    0.20158    0.04239   1.00
H2       0.04472    0.13718    0.06006   1.00
H2       0.17460    0.16848    0.07407   1.00
H2       -0.39017   0.14079    0.06571   1.00
H2       -0.39082   0.10864    0.09102   1.00
C2       -0.23313   0.24246    0.00793   1.00
C3       -0.21889   0.26907    0.02782   1.00
O2       -0.24831   0.30541    0.03517   1.00
C3       -0.21404   0.19390    0.00244   1.00
H1       -0.22263   0.17387    -0.01282   1.00
C3a      -0.18794   0.24561    0.04178   1.00
H1       -0.18093   0.26357    0.05727   1.00
C3b      -0.18527   0.16907    0.01653   1.00
C4       -0.17211   0.19478    0.03639   1.00
O_3      -0.25603   0.07382    0.05889   1.00
C5       -0.20077   0.37593    0.03477   1.00
H2       -0.15501   0.38845    0.04421   1.00
C5       -0.23675   0.41238    0.04343   1.00
H2       -0.18376   0.39381    0.01896   1.00
H2       -0.23676   0.40901    0.06028   1.00
H2       -0.29108   0.38317    0.03855   1.00
C5       -0.20379   0.48740    0.03658   1.00
H2       -0.14841   0.51441    0.04014   1.00
H2       -0.22762   0.51370    0.04450   1.00
H2       -0.21109   0.49132    0.01996   1.00
C5       -0.36457   0.05883    0.06691   1.00
H2       -0.38439   0.00787    0.07411   1.00
H2       -0.37235   0.05015    0.05025   1.00
C5       -0.40300   0.09427    0.07479   1.00
H2       -0.45890   0.05922    0.07350   1.00
C5       0.67382    1.31374    0.87178   1.00
H2       0.63872    1.32364    0.88105   1.00
H2       0.65736    1.31150    0.85580   1.00
C5       0.74787    1.37287    0.87464   1.00
H2       0.75806    1.41707    0.86486   1.00
H2       0.78453    1.35549    0.87068   1.00
O_3      0.60596    0.97877    0.86493   1.00
C4       0.52266    1.02142    0.88419   1.00
C3c      0.54741    1.08912    0.87799   1.00
H1       0.54437    1.10012    0.86219   1.00
C3d      0.52621    1.00808    0.90489   1.00
C3       0.57719    1.14356    0.89190   1.00
O2       0.59259    1.20725    0.88520   1.00
C3       0.55701    1.06229    0.91872   1.00
H1       0.56077    1.04979    0.93431   1.00
C2       0.58297    1.13113    0.91267   1.00
C5       0.62145    0.93805    0.87759   1.00
H2       0.60750    0.88806    0.87049   1.00
H2       0.59428    0.92794    0.89241   1.00
C5       0.69788    0.97678    0.88136   1.00
H2       0.71212    1.02752    0.88793   1.00
H2       0.72447    0.98602    0.86648   1.00
C5       0.71887    0.93701    0.89565   1.00
H2       0.70438    0.88610    0.88924   1.00
H2       0.69418    0.92982    0.91074   1.00
H2       0.77507    0.96541    0.89786   1.00
C5       0.43695    0.90751    0.91598   1.00
C5       0.66109    1.24363    0.87854   1.00
H2       0.40602    0.90177    0.90224   1.00
H2       0.42394    0.93388    0.92798   1.00
H2       0.66874    1.21653    0.86557   1.00
H2       0.69799    1.24925    0.89071   1.00
H2       0.75716    1.39207    0.89061   1.00
H2       0.32067    0.77473    0.90786   1.00
H2       0.31447    0.80971    0.93206   1.00
C2       0.43860    0.85456    0.84227   1.00
C3       0.39655    0.87741    0.85092   1.00
O2       0.32651    0.83708    0.85016   1.00
C3       0.50897    0.89013    0.84702   1.00
H1       0.54284    0.87502    0.84024   1.00
C3a      0.42495    0.93342    0.86437   1.00
H1       0.39141    0.94784    0.87176   1.00
C3b      0.53665    0.94442    0.86089   1.00
C4       0.49460    0.96642    0.86973   1.00
O_3      0.50732    0.94301    0.91152   1.00
C5       0.29965    0.86064    0.83491   1.00
H2       0.31260    0.91439    0.83779   1.00
C5       0.22210    0.81421    0.83526   1.00
H2       0.31958    0.85793    0.81968   1.00
H2       0.20110    0.83071    0.84792   1.00
H2       0.21136    0.76183    0.83908   1.00
C5       0.18795    0.81414    0.81502   1.00
H2       0.20358    0.86737    0.81064   1.00
H2       0.13138    0.78449    0.81640   1.00
H2       0.20194    0.78959    0.80265   1.00
C5       0.41884    0.83691    0.92355   1.00
H2       0.44053    0.84208    0.93904   1.00
H2       0.44453    0.81686    0.91357   1.00
C5       0.34130    0.78749    0.92362   1.00
H2       0.32964    0.73896    0.93117   1.00
C5       -0.05152   0.60757    0.96094   1.00
H2       -0.09877   0.60765    0.95649   1.00
H2       -0.00905   0.66031    0.95826   1.00
C5       -0.05539   0.58881    0.98366   1.00
H2       -0.04127   0.63410    0.99341   1.00
H2       -0.02019   0.56902    0.98690   1.00
O_3      0.09036    0.48360    0.89107   1.00
C4       -0.02209   0.50179    0.88394   1.00
C3c      -0.02316   0.54149    0.90015   1.00
H1       0.01847    0.59310    0.90205   1.00
C3d      -0.07731   0.43499    0.88157   1.00
C3       -0.07707   0.51520    0.91427   1.00
O2       -0.07875   0.55955    0.92822   1.00
C3       -0.13042   0.40822    0.89583   1.00
H1       -0.17047   0.35594    0.89380   1.00
C2       -0.13195   0.44741    0.91243   1.00
C5       0.07677    0.41727    0.88615   1.00
H2       0.11475    0.41788    0.87527   1.00
H2       0.02496    0.38640    0.87936   1.00
C5       0.08024    0.38347    0.90567   1.00
H2       0.04366    0.38458    0.91675   1.00
H2       0.13236    0.41435    0.91221   1.00
C5       0.06362    0.30994    0.90180   1.00
H2       0.09966    0.30842    0.89064   1.00
H2       0.01073    0.27847    0.89593   1.00
H2       0.06788    0.28658    0.91616   1.00
C5       -0.10354   0.40131    0.84862   1.00
C5       -0.04601   0.55802    0.94631   1.00
H2       -0.07241   0.45430    0.84283   1.00
H2       -0.15714   0.38992    0.85068   1.00
H2       0.00862    0.57484    0.94325   1.00
H2       -0.06982   0.50584    0.95313   1.00
H2       -0.10841   0.54953    0.98810   1.00
H2       -0.06860   0.41913    0.80605   1.00
H2       -0.16012   0.37458    0.81040   1.00
C2       0.14399    0.57615    0.84186   1.00
C3       0.08985    0.58902    0.83853   1.00
O2       0.08069    0.60988    0.81971   1.00
C3       0.14336    0.54143    0.85978   1.00
H1       0.18492    0.53235    0.86303   1.00
C3a      0.03608    0.56569    0.85271   1.00
H1       -0.00688   0.57251    0.84937   1.00
C3b      0.08875    0.51639    0.87352   1.00
C4       0.03445    0.52829    0.87003   1.00
O_3      -0.07625   0.39212    0.86680   1.00
C5       0.10502    0.68068    0.81978   1.00
H2       0.07772    0.69443    0.83129   1.00
C5       0.09203    0.69949    0.79860   1.00
H2       0.16072    0.70989    0.82312   1.00
H2       0.03749    0.68554    0.79758   1.00
H2       0.09935    0.66660    0.78750   1.00
C5       0.13896    0.77551    0.79346   1.00
H2       0.13500    0.80757    0.80555   1.00
H2       0.12420    0.78841    0.77872   1.00
H2       0.19328    0.78834    0.79189   1.00
C5       -0.10252   0.35237    0.83297   1.00
H2       -0.14258   0.29957    0.83706   1.00
H2       -0.05253   0.35421    0.83409   1.00
C5       -0.11331   0.37033    0.81128   1.00
H2       -0.11939   0.32972    0.80059   1.00
C5       0.41921    0.38275    0.96658   1.00
H2       0.40984    0.33052    0.96355   1.00
H2       0.36860    0.37929    0.96557   1.00
C5       0.44946    0.40533    0.98811   1.00
H2       0.40847    0.38380    0.99979   1.00
H2       0.47723    0.46196    0.98922   1.00
O_3      0.53767    0.61503    0.88676   1.00
C4       0.49806    0.47602    0.88396   1.00
C3c      0.46383    0.44615    0.90215   1.00
H1       0.41650    0.44478    0.90562   1.00
C3d      0.55915    0.47641    0.87959   1.00
C3       0.49031    0.41858    0.91622   1.00
O2       0.44997    0.38290    0.93245   1.00
C3       0.58633    0.45017    0.89375   1.00
H1       0.63454    0.45378    0.89006   1.00
C2       0.55275    0.42045    0.91232   1.00
C5       0.60330    0.65815    0.87870   1.00
H2       0.60310    0.69328    0.86689   1.00
H2       0.62481    0.62791    0.87182   1.00
C5       0.64899    0.70069    0.89604   1.00
H2       0.64768    0.66558    0.90810   1.00
H2       0.62739    0.73113    0.90267   1.00
C5       0.72227    0.74751    0.88871   1.00
H2       0.72390    0.78239    0.87656   1.00
H2       0.74470    0.71707    0.88273   1.00
H2       0.75455    0.77927    0.90149   1.00
C5       0.57480    0.46461    0.84598   1.00
C5       0.46529    0.42690    0.94929   1.00
H2       0.52071    0.44751    0.84224   1.00
H2       0.57976    0.41876    0.84895   1.00
H2       0.45427    0.46852    0.94560   1.00
H2       0.52012    0.45148    0.95388   1.00
H2       0.48510    0.38622    0.99189   1.00
H2       0.54062    0.46735    0.80391   1.00
H2       0.57599    0.41201    0.80843   1.00
C2       0.42415    0.56751    0.84165   1.00
C3       0.40078    0.49693    0.84062   1.00
O2       0.36824    0.46029    0.82344   1.00
C3       0.46940    0.60582    0.85747   1.00
H1       0.48684    0.65958    0.85899   1.00
C3a      0.42419    0.46688    0.85491   1.00
H1       0.40889    0.41362    0.85322   1.00
C3b      0.49429    0.57622    0.87126   1.00
C4       0.47184    0.50628    0.87003   1.00
O_3      0.59743    0.50974    0.86265   1.00
C5       0.29716    0.42248    0.82665   1.00
H2       0.28410    0.38604    0.83954   1.00
C5       0.26507    0.38260    0.80713   1.00
H2       0.27633    0.45686    0.82992   1.00
H2       0.27109    0.33672    0.80693   1.00
H2       0.29554    0.41519    0.79417   1.00
C5       0.18936    0.36186    0.80483   1.00
H2       0.16076    0.33402    0.81861   1.00
H2       0.16637    0.32820    0.79139   1.00
H2       0.18323    0.40739    0.80240   1.00
C5       0.61906    0.50298    0.82785   1.00
H2       0.67078    0.50967    0.83017   1.00
H2       0.62519    0.55495    0.82760   1.00
C5       0.58795    0.46598    0.80771   1.00
H2       0.62475    0.49146    0.79513   1.00
C5       0.63829    0.39682    0.29260   1.00
H2       0.65849    0.36426    0.28687   1.00
H2       0.63797    0.39282    0.30940   1.00
C5       0.68590    0.47146    0.28585   1.00
H2       0.73088    0.49737    0.29608   1.00
H2       0.65771    0.50002    0.28604   1.00
O_3      0.28627    0.26001    0.29280   1.00
C4       0.35491    0.18933    0.28253   1.00
C3c      0.42260    0.23099    0.28893   1.00
H1       0.43364    0.24137    0.30491   1.00
C3d      0.34174    0.17565    0.26166   1.00
C3       0.47679    0.26061    0.27493   1.00
O2       0.54224    0.29383    0.28246   1.00
C3       0.39542    0.20611    0.24765   1.00
H1       0.38254    0.19609    0.23176   1.00
C2       0.46408    0.24897    0.25385   1.00
C5       0.23934    0.25445    0.27777   1.00
H2       0.18705    0.23475    0.28402   1.00
H2       0.23634    0.21985    0.26527   1.00
C5       0.26412    0.32530    0.26920   1.00
H2       0.31711    0.34577    0.26347   1.00
H2       0.26631    0.35924    0.28177   1.00
C5       0.21711    0.32352    0.25217   1.00
H2       0.16400    0.30268    0.25775   1.00
H2       0.21674    0.29154    0.23930   1.00
H2       0.23518    0.37595    0.24640   1.00
C5       0.25383    0.06898    0.25465   1.00
C5       0.56518    0.36417    0.28457   1.00
H2       0.25335    0.05063    0.27033   1.00
H2       0.28716    0.05717    0.24502   1.00
H2       0.53220    0.37196    0.29556   1.00
H2       0.56394    0.38844    0.26992   1.00
H2       0.70653    0.47381    0.27027   1.00
H2       0.13488    -0.05601   0.26735   1.00
H2       0.17738    -0.06778   0.24563   1.00
C2       0.18722    0.10409    0.32414   1.00
C3       0.22320    0.06943    0.32004   1.00
O2       0.19548    0.00155    0.32511   1.00
C3       0.21007    0.16849    0.31500   1.00
H1       0.18472    0.19712    0.31825   1.00
C3a      0.27938    0.09860    0.30666   1.00
H1       0.30396    0.06967    0.30277   1.00
C3b      0.26458    0.19635    0.30121   1.00
C4       0.29965    0.16135    0.29690   1.00
O_3      0.27558    0.13924    0.25445   1.00
C5       0.22600    -0.00502   0.34298   1.00
H2       0.28220    0.01751    0.34105   1.00
C5       0.19351    -0.08139   0.34737   1.00
H2       0.21662    0.02059    0.35601   1.00
H2       0.21797    -0.10274   0.33741   1.00
H2       0.13903    -0.10602   0.34266   1.00
C5       0.19928    -0.09681   0.36983   1.00
H2       0.25347    -0.06754   0.37470   1.00
H2       0.18033    -0.15216   0.37209   1.00
H2       0.16767    -0.08350   0.37980   1.00
C5       0.18154    0.03121    0.24626   1.00
H2       0.18377    0.04062    0.22962   1.00
H2       0.15235    0.05384    0.25310   1.00
C5       0.14572    -0.04573   0.25081   1.00
H2       0.09610    -0.07253   0.24270   1.00
C5       0.59658    0.37558    0.28568   1.00
H2       0.57476    0.38128    0.27123   1.00
H2       0.57089    0.38809    0.29792   1.00
C5       0.58108    0.30111    0.28785   1.00
H2       0.52836    0.26763    0.29361   1.00
H2       0.61795    0.29880    0.29852   1.00
O_3      0.91060    0.64494    0.31621   1.00
C4       0.83496    0.64546    0.28240   1.00
C3c      0.76971    0.58815    0.28466   1.00
H1       0.73811    0.58544    0.29732   1.00
C3d      0.87494    0.64843    0.26564   1.00
C3       0.74461    0.53326    0.27090   1.00
O2       0.67741    0.48292    0.27267   1.00
C3       0.85062    0.59329    0.25213   1.00
H1       0.88406    0.59681    0.23991   1.00
C2       0.78505    0.53461    0.25432   1.00
C5       0.97854    0.66427    0.31123   1.00
H2       1.01620    0.70757    0.32071   1.00
H2       0.98955    0.67948    0.29496   1.00
C5       0.98765    0.60310    0.31499   1.00
H2       0.94875    0.55926    0.30596   1.00
H2       0.97716    0.58876    0.33131   1.00
C5       1.05977    0.61901    0.30925   1.00
H2       1.09889    0.66304    0.31811   1.00
H2       1.06945    0.63102    0.29280   1.00
H2       1.06593    0.57422    0.31252   1.00
C5       0.94180    0.75554    0.25294   1.00
C5       0.67245    0.42933    0.28491   1.00
H2       0.91357    0.77618    0.26140   1.00
H2       0.91875    0.73940    0.23755   1.00
H2       0.69191    0.44853    0.30048   1.00
H2       0.70270    0.40662    0.27875   1.00
H2       0.58395    0.27959    0.27285   1.00
H2       1.00536    0.90181    0.25691   1.00
H2       0.99091    0.87366    0.23064   1.00
C2       0.91715    0.81045    0.32497   1.00
C3       0.87632    0.81003    0.30872   1.00
O2       0.87626    0.86888    0.30334   1.00
C3       0.92707    0.75388    0.32729   1.00
H1       0.95658    0.75183    0.33987   1.00
C3a      0.84814    0.75472    0.29502   1.00
H1       0.82027    0.75699    0.28201   1.00
C3b      0.90080    0.70000    0.31328   1.00
C4       0.86111    0.70016    0.29696   1.00
O_3      0.94142    0.70127    0.26357   1.00
C5       0.81704    0.86727    0.31077   1.00
H2       0.76992    0.82273    0.30456   1.00
C5       0.82024    0.93340    0.30391   1.00
H2       0.81503    0.86437    0.32765   1.00
H2       0.80374    0.92754    0.28777   1.00
H2       0.87478    0.97439    0.30426   1.00
C5       0.77655    0.95295    0.31718   1.00
H2       0.72346    0.90940    0.31795   1.00
H2       0.77558    0.99791    0.31074   1.00
H2       0.79782    0.96747    0.33286   1.00
C5       1.01580    0.81175    0.25071   1.00
H2       1.04097    0.79505    0.23939   1.00
H2       1.04206    0.81749    0.26548   1.00
C5       1.02194    0.88008    0.24442   1.00
H2       1.07594    0.91781    0.24088   1.00
C5       0.76847    0.39683    0.28716   1.00
H2       0.79727    0.42101    0.27305   1.00
H2       0.80498    0.42202    0.29982   1.00
C5       0.70753    0.40943    0.28903   1.00
H2       0.72436    0.46111    0.29529   1.00
H2       0.66787    0.37050    0.29917   1.00
O_3      0.73214    0.08397    0.31515   1.00
C4       0.81054    0.16508    0.28241   1.00
C3c      0.81574    0.22900    0.28518   1.00
H1       0.84248    0.25957    0.29825   1.00
C3d      0.77633    0.12648    0.26513   1.00
C3       0.78594    0.25405    0.27141   1.00
O2       0.80021    0.32030    0.27376   1.00
C3       0.74548    0.15070    0.25159   1.00
H1       0.71771    0.11824    0.23895   1.00
C2       0.74961    0.21490    0.25429   1.00
C5       0.68591    0.01613    0.30936   1.00
H2       0.69210    -0.02165   0.31860   1.00
H2       0.69248    0.00746    0.29306   1.00
C5       0.61424    0.00399    0.31259   1.00
H2       0.60867    0.04296    0.30380   1.00
H2       0.60805    0.01215    0.32894   1.00
C5       0.56051    -0.06815   0.30596   1.00
H2       0.56609    -0.10732   0.31457   1.00
H2       0.56514    -0.07556   0.28947   1.00
H2       0.50848    -0.07658   0.30885   1.00
C5       0.82147    0.06413    0.25224   1.00
C5       0.74908    0.32178    0.28570   1.00
H2       0.86917    0.09269    0.26122   1.00
H2       0.82933    0.08882    0.23707   1.00
H2       0.74783    0.30084    0.30112   1.00
H2       0.69703    0.29080    0.27897   1.00
H2       0.68449    0.40745    0.27387   1.00
H2       0.90785    0.00468    0.25631   1.00
H2       0.89629    0.02144    0.23007   1.00
C2       0.89339    0.08277    0.32491   1.00
C3       0.93476    0.12628    0.30924   1.00
O2       0.99539    0.12931    0.30426   1.00
C3       0.82577    0.07016    0.32672   1.00
H1       0.79337    0.03851    0.33887   1.00
C3a      0.90753    0.15444    0.29557   1.00
H1       0.93859    0.18448    0.28297   1.00
C3b      0.79817    0.09647    0.31272   1.00
C4       0.83902    0.13886    0.29696   1.00
O_3      0.76533    0.06110    0.26250   1.00
C5       1.05088    0.18868    0.31248   1.00
H2       1.05231    0.23566    0.30663   1.00
C5       1.11590    0.18884    0.30603   1.00
H2       1.04797    0.18858    0.32936   1.00
H2       1.12791    0.20735    0.29009   1.00
H2       1.10425    0.13487    0.30591   1.00
C5       1.17708    0.23252    0.32002   1.00
H2       1.18457    0.28479    0.32123   1.00
H2       1.22457    0.23605    0.31390   1.00
H2       1.16927    0.20955    0.33550   1.00
C5       0.80657    -0.00876   0.24937   1.00
H2       0.76620    -0.03369   0.23760   1.00
H2       0.78504    -0.03705   0.26380   1.00
C5       0.87090    -0.01156   0.24345   1.00
H2       0.85689    -0.06465   0.23943   1.00
C5       0.84209    0.63860    0.69565   1.00
H2       0.85907    0.60034    0.69624   1.00
H2       0.88941    0.68913    0.69487   1.00
C5       0.79809    0.62650    0.67646   1.00
H2       0.83090    0.64957    0.66287   1.00
H2       0.76495    0.64939    0.67851   1.00
O_3      0.75503    0.73115    0.78670   1.00
C4       0.81033    0.64470    0.78266   1.00
C3c      0.83391    0.65262    0.76260   1.00
H1       0.87516    0.70141    0.75762   1.00
C3d      0.75719    0.58043    0.78892   1.00
C3       0.80429    0.59843    0.74860   1.00
O2       0.83541    0.60754    0.73002   1.00
C3       0.72672    0.52674    0.77491   1.00
H1       0.68452    0.47908    0.78021   1.00
C2       0.74944    0.53408    0.75450   1.00
C5       0.69473    0.70176    0.79840   1.00
H2       0.69796    0.73496    0.81133   1.00
H2       0.68317    0.65126    0.80462   1.00
C5       0.63677    0.69192    0.78459   1.00
H2       0.63476    0.66033    0.77137   1.00
H2       0.64854    0.74271    0.77862   1.00
C5       0.56855    0.65780    0.79597   1.00
H2       0.57035    0.68885    0.80928   1.00
H2       0.55560    0.60610    0.80133   1.00
H2       0.52705    0.65241    0.78576   1.00
C5       0.76548    0.55432    0.82182   1.00
C5       0.80534    0.63128    0.71578   1.00
H2       0.81941    0.59604    0.82306   1.00
H2       0.76480    0.50652    0.81727   1.00
H2       0.81254    0.68163    0.72069   1.00
H2       0.74927    0.59567    0.71403   1.00
H2       0.76551    0.57085    0.67315   1.00
H2       0.82284    0.59488    0.86197   1.00
H2       0.79457    0.50597    0.85650   1.00
C2       0.89309    0.80952    0.82529   1.00
C3       0.92389    0.76905    0.82275   1.00
O2       0.96901    0.77040    0.83706   1.00
C3       0.83699    0.79628    0.81278   1.00
H1       0.81340    0.82746    0.81398   1.00
C3a      0.89725    0.71582    0.80834   1.00
H1       0.91894    0.68285    0.80739   1.00
C3b      0.80927    0.74193    0.79893   1.00
C4       0.83928    0.70108    0.79664   1.00
O_3      0.72869    0.57136    0.80804   1.00
C5       1.03667    0.81069    0.83014   1.00
H2       1.04504    0.79029    0.81566   1.00
C5       1.08325    0.80865    0.84661   1.00
H2       1.04937    0.86445    0.82762   1.00
H2       1.08359    0.75983    0.84518   1.00
H2       1.05948    0.80702    0.86155   1.00
C5       1.15649    0.86989    0.84561   1.00
H2       1.17743    0.87389    0.83011   1.00
H2       1.19015    0.86369    0.85668   1.00
H2       1.15794    0.91860    0.84959   1.00
C5       0.73164    0.54362    0.84249   1.00
H2       0.68208    0.49485    0.84215   1.00
H2       0.71972    0.58521    0.84499   1.00
C5       0.77735    0.54324    0.85972   1.00
H2       0.74845    0.52829    0.87422   1.00
C5       0.58911    0.43493    0.77286   1.00
H2       0.62708    0.41778    0.77426   1.00
H2       0.58512    0.45302    0.78819   1.00
C5       0.61484    0.49394    0.75733   1.00
H2       0.65214    0.54326    0.76448   1.00
H2       0.57116    0.49813    0.75130   1.00
O_3      0.24532    0.18737    0.77636   1.00
C4       0.35520    0.16445    0.78264   1.00
C3c      0.41304    0.22922    0.78510   1.00
H1       0.41635    0.26030    0.79797   1.00
C3d      0.35234    0.12437    0.76592   1.00
C3       0.46684    0.25530    0.77094   1.00
O2       0.52523    0.31532    0.77563   1.00
C3       0.40522    0.15071    0.75159   1.00
H1       0.39967    0.11909    0.73863   1.00
C2       0.46375    0.21642    0.75372   1.00
C5       0.19902    0.14349    0.76159   1.00
H2       0.14575    0.11474    0.76745   1.00
H2       0.21361    0.10587    0.75615   1.00
C5       0.20096    0.18725    0.74385   1.00
H2       0.25455    0.21744    0.73836   1.00
H2       0.18569    0.22417    0.74942   1.00
C5       0.15366    0.14315    0.72671   1.00
H2       0.10014    0.11251    0.73212   1.00
H2       0.17029    0.10790    0.72066   1.00
H2       0.15462    0.17612    0.71407   1.00
C5       0.29822    0.01021    0.77247   1.00
C5       0.52195    0.37104    0.76722   1.00
H2       0.30025    0.01821    0.78915   1.00
H2       0.34386    0.00694    0.76778   1.00
H2       0.47792    0.37374    0.77378   1.00
H2       0.51524    0.36705    0.75037   1.00
H2       0.64216    0.48591    0.74444   1.00
H2       0.21018    -0.10533   0.79757   1.00
H2       0.26999    -0.11914   0.78280   1.00
C2       0.18662    0.08547    0.82390   1.00
C3       0.24285    0.07647    0.82792   1.00
O2       0.23746    0.02881    0.84196   1.00
C3       0.18918    0.12375    0.80662   1.00
H1       0.14774    0.13306    0.80341   1.00
C3a      0.29890    0.10399    0.81449   1.00
H1       0.33978    0.09335    0.81715   1.00
C3b      0.24400    0.14918    0.79295   1.00
C4       0.29939    0.13930    0.79680   1.00
O_3      0.29435    0.06249    0.76198   1.00
C5       0.26918    0.06117    0.86031   1.00
H2       0.32438    0.09876    0.85798   1.00
C5       0.26204    0.00531    0.87487   1.00
H2       0.24404    0.08820    0.86701   1.00
H2       0.30161    -0.00829   0.87098   1.00
H2       0.21173    -0.04091   0.87184   1.00
C5       0.26785    0.02636    0.89735   1.00
H2       0.31590    0.07543    0.89976   1.00
H2       0.26818    -0.01310   0.90735   1.00
H2       0.22345    0.03176    0.90218   1.00
C5       0.23419    -0.05682   0.76739   1.00
H2       0.23810    -0.07055   0.75142   1.00
H2       0.18972    -0.04850   0.76810   1.00
C5       0.22346    -0.11437   0.78201   1.00
H2       0.18061    -0.16380   0.77662   1.00
C5       0.57552    0.18134    0.77888   1.00
H2       0.59821    0.23761    0.77880   1.00
H2       0.56157    0.16525    0.79491   1.00
C5       0.51122    0.14844    0.76528   1.00
H2       0.46634    0.14397    0.77357   1.00
H2       0.49982    0.09677    0.76036   1.00
O_3      0.79714    0.05208    0.77956   1.00
C4       0.83563    0.19074    0.78262   1.00
C3c      0.77524    0.19195    0.78645   1.00
H1       0.74766    0.17063    0.80041   1.00
C3d      0.87132    0.21967    0.76447   1.00
C3       0.74899    0.21959    0.77232   1.00
O2       0.69443    0.22653    0.77817   1.00
C3       0.84463    0.24606    0.75020   1.00
H1       0.87251    0.26549    0.73618   1.00
C2       0.78323    0.24701    0.75373   1.00
C5       0.83262    0.03958    0.76409   1.00
H2       0.85879    0.01232    0.76986   1.00
H2       0.87167    0.08816    0.75688   1.00
C5       0.78081    -0.00481   0.74817   1.00
H2       0.75331    0.02157    0.74282   1.00
H2       0.74246    -0.05341   0.75549   1.00
C5       0.81558    -0.01890   0.73036   1.00
H2       0.84354    -0.04482   0.73562   1.00
H2       0.85217    0.02941    0.72260   1.00
H2       0.77675    -0.05264   0.71910   1.00
C5       0.98695    0.27124    0.76753   1.00
C5       0.63282    0.16851    0.77211   1.00
H2       0.98469    0.27127    0.78438   1.00
H2       0.99383    0.32067    0.76181   1.00
H2       0.62738    0.12190    0.77963   1.00
H2       0.63029    0.15977    0.75535   1.00
H2       0.51812    0.18044    0.75159   1.00
H2       1.10677    0.29443    0.78967   1.00
H2       1.12270    0.36532    0.77321   1.00
C2       0.91390    0.10057    0.82392   1.00
C3       0.93103    0.16926    0.82640   1.00
O2       0.98522    0.21246    0.83854   1.00
C3       0.86806    0.06209    0.80823   1.00
H1       0.85255    0.00891    0.80626   1.00
C3a      0.90379    0.19816    0.81300   1.00
H1       0.92044    0.25183    0.81437   1.00
C3b      0.84278    0.09157    0.79453   1.00
C4       0.86068    0.16013    0.79682   1.00
O_3      0.92814    0.21515    0.75928   1.00
C5       0.96142    0.22154    0.85741   1.00
H2       0.92746    0.24373    0.85546   1.00
C5       1.02417    0.27071    0.86979   1.00
H2       0.93270    0.17215    0.86566   1.00
H2       1.04145    0.32364    0.86457   1.00
H2       1.06580    0.25995    0.86597   1.00
C5       1.01075    0.26444    0.89284   1.00
H2       0.96566    0.26997    0.89620   1.00
H2       1.05558    0.30472    0.90119   1.00
H2       1.00182    0.21436    0.89877   1.00
C5       1.04808    0.26479    0.76114   1.00
H2       1.05724    0.27654    0.74465   1.00
H2       1.03465    0.21061    0.76308   1.00
C5       1.11223    0.31180    0.77358   1.00
H2       1.15721    0.31109    0.76714   1.00
C5       -0.04817   0.34889    0.46218   1.00
H2       -0.06090   0.38375    0.47047   1.00
H2       0.00745    0.36992    0.46435   1.00
C5       -0.08873   0.27642    0.47135   1.00
H2       -0.06329   0.27219    0.48528   1.00
H2       -0.09278   0.23793    0.46009   1.00
O_3      0.00027    0.39225    0.35780   1.00
C4       -0.02158   0.47733    0.38413   1.00
C3c      -0.01319   0.45908    0.40383   1.00
H1       0.03608    0.46727    0.40855   1.00
C3d      -0.08594   0.46714    0.37839   1.00
C3       -0.06802   0.42927    0.41761   1.00
O2       -0.05404   0.42051    0.43734   1.00
C3       -0.14096   0.43626    0.39194   1.00
H1       -0.18993   0.42725    0.38661   1.00
C2       -0.13354   0.41682    0.41184   1.00
C5       -0.04507   0.36940    0.34116   1.00
H2       -0.01774   0.38141    0.32635   1.00
H2       -0.07822   0.39287    0.34126   1.00
C5       -0.08956   0.29248    0.34298   1.00
H2       -0.11540   0.28037    0.35802   1.00
H2       -0.05599   0.26955    0.34267   1.00
C5       -0.14222   0.26358    0.32580   1.00
H2       -0.11678   0.27590    0.31072   1.00
H2       -0.17726   0.28466    0.32652   1.00
H2       -0.17326   0.20716    0.32712   1.00
C5       -0.08126   0.54819    0.35684   1.00
C5       -0.06350   0.35431    0.43985   1.00
H2       -0.02618   0.58334    0.35990   1.00
H2       -0.11181   0.56085    0.36742   1.00
H2       -0.02765   0.34741    0.42985   1.00
H2       -0.11642   0.31337    0.43592   1.00
H2       -0.14106   0.26430    0.47604   1.00
H2       -0.00676   0.65949    0.32889   1.00
H2       -0.07723   0.66266    0.34101   1.00
C2       0.14113    0.56103    0.34080   1.00
C3       0.13334    0.60437    0.35459   1.00
O2       0.16593    0.67375    0.35118   1.00
C3       0.09630    0.48987    0.34240   1.00
H1       0.10203    0.45520    0.33242   1.00
C3a      0.08054    0.57624    0.36912   1.00
H1       0.07282    0.61036    0.37879   1.00
C3b      0.04250    0.46223    0.35644   1.00
C4       0.03416    0.50545    0.36992   1.00
O_3      -0.09818   0.47941    0.35870   1.00
C5       0.22399    0.70759    0.36371   1.00
H2       0.20992    0.69803    0.38010   1.00
C5       0.25642    0.78394    0.35930   1.00
H2       0.26144    0.69062    0.36031   1.00
H2       0.22729    0.80386    0.36766   1.00
H2       0.24923    0.78959    0.34284   1.00
C5       0.33265    0.82460    0.36498   1.00
H2       0.33941    0.81410    0.38102   1.00
H2       0.35293    0.88037    0.36317   1.00
H2       0.36391    0.81118    0.35489   1.00
C5       -0.09670   0.55895    0.33512   1.00
H2       -0.15307   0.53287    0.33319   1.00
H2       -0.07777   0.53316    0.32477   1.00
C5       -0.06343   0.63511    0.32970   1.00
H2       -0.08151   0.64107    0.31458   1.00
C5       0.38647    1.05651    0.45911   1.00
H2       0.43125    1.06619    0.46844   1.00
H2       0.34869    1.00150    0.46103   1.00
C5       0.35694    1.10082    0.46699   1.00
H2       0.32361    1.07668    0.48042   1.00
H2       0.32665    1.10754    0.45485   1.00
O_3      0.40040    1.00676    0.35543   1.00
C4       0.49887    1.02153    0.38415   1.00
C3c      0.46849    1.01480    0.40322   1.00
H1       0.42443    0.96684    0.40743   1.00
C3d      0.55684    1.08415    0.37906   1.00
C3       0.49360    1.06970    0.41697   1.00
O2       0.46653    1.05691    0.43623   1.00
C3       0.58117    1.13930    0.39257   1.00
H1       0.62427    1.18704    0.38772   1.00
C2       0.55061    1.13360    0.41183   1.00
C5       0.42892    1.05202    0.33890   1.00
H2       0.41538    1.02487    0.32404   1.00
H2       0.48565    1.08217    0.34006   1.00
C5       0.40075    1.10043    0.33938   1.00
H2       0.41261    1.12616    0.35445   1.00
H2       0.34416    1.06985    0.33803   1.00
C5       0.43115    1.15318    0.32226   1.00
H2       0.41991    1.12782    0.30718   1.00
H2       0.48740    1.18532    0.32401   1.00
H2       0.40884    1.18715    0.32259   1.00
C5       0.63433    1.07370    0.35956   1.00
C5       0.41230    1.07086    0.43720   1.00
H2       0.61046    1.01818    0.36272   1.00
H2       0.67576    1.10215    0.37086   1.00
H2       0.37079    1.03690    0.42654   1.00
H2       0.42858    1.12473    0.43298   1.00
H2       0.39838    1.15202    0.47210   1.00
H2       0.67006    0.99392    0.33345   1.00
H2       0.74329    1.06143    0.34661   1.00
C2       0.42031    0.85897    0.34077   1.00
C3       0.46695    0.86328    0.35572   1.00
O2       0.50052    0.82687    0.35363   1.00
C3       0.39808    0.90729    0.34119   1.00
H1       0.36107    0.90433    0.33029   1.00
C3a      0.49142    0.91611    0.37025   1.00
H1       0.53002    0.92103    0.38086   1.00
C3b      0.42415    0.96104    0.35525   1.00
C4       0.47130    0.96588    0.36991   1.00
O_3      0.58548    1.09501    0.35992   1.00
C5       0.47028    0.76857    0.36616   1.00
H2       0.47214    0.78280    0.38246   1.00
C5       0.51091    0.73180    0.36324   1.00
H2       0.41606    0.73382    0.36182   1.00
H2       0.55830    0.75834    0.37249   1.00
H2       0.52730    0.73830    0.34707   1.00
C5       0.46992    0.65553    0.36886   1.00
H2       0.44942    0.64981    0.38450   1.00
H2       0.50281    0.63195    0.36818   1.00
H2       0.42693    0.62647    0.35802   1.00
C5       0.66526    1.08776    0.33839   1.00
H2       0.69891    1.14385    0.33659   1.00
H2       0.62320    1.07144    0.32715   1.00
C5       0.70506    1.05019    0.33444   1.00
H2       0.73269    1.06713    0.31976   1.00
C5       0.66945    0.61321    0.45921   1.00
H2       0.63435    0.56833    0.46851   1.00
H2       0.65209    0.65089    0.46114   1.00
C5       0.74325    0.64283    0.46714   1.00
H2       0.75228    0.67604    0.48058   1.00
H2       0.78032    0.67326    0.45502   1.00
O_3      0.60643    0.59988    0.35550   1.00
C4       0.52266    0.50112    0.38415   1.00
C3c      0.54615    0.53139    0.40324   1.00
H1       0.54211    0.57536    0.40747   1.00
C3d      0.52750    0.44328    0.37904   1.00
C3       0.57593    0.50628    0.41700   1.00
O2       0.59004    0.53322    0.43627   1.00
C3       0.55832    0.41895    0.39255   1.00
H1       0.56310    0.37594    0.38768   1.00
C2       0.58301    0.44940    0.41183   1.00
C5       0.62338    0.57156    0.33897   1.00
H2       0.60982    0.58515    0.32411   1.00
H2       0.59689    0.51482    0.34009   1.00
C5       0.69997    0.59986    0.33949   1.00
H2       0.71379    0.58795    0.35456   1.00
H2       0.72589    0.65646    0.33817   1.00
C5       0.72254    0.56968    0.32237   1.00
H2       0.70847    0.58098    0.30729   1.00
H2       0.69851    0.51343    0.32408   1.00
H2       0.77883    0.59209    0.32273   1.00
C5       0.43978    0.36581    0.35947   1.00
C5       0.65816    0.58754    0.43729   1.00
H2       0.40800    0.38955    0.36263   1.00
H2       0.42680    0.32432    0.37074   1.00
H2       0.66569    0.62909    0.42665   1.00
H2       0.69587    0.57140    0.43308   1.00
H2       0.75308    0.60142    0.47223   1.00
H2       0.32439    0.33003    0.33330   1.00
H2       0.31875    0.25679    0.34643   1.00
C2       0.43868    0.57970    0.34077   1.00
C3       0.39631    0.53291    0.35569   1.00
O2       0.32634    0.49923    0.35355   1.00
C3       0.50926    0.60207    0.34123   1.00
H1       0.54333    0.63920    0.33035   1.00
C3a      0.42466    0.50844    0.37021   1.00
H1       0.39096    0.46973    0.38080   1.00
C3b      0.53693    0.57600    0.35529   1.00
C4       0.49459    0.52870    0.36991   1.00
O_3      0.50990    0.41476    0.35987   1.00
C5       0.29809    0.52928    0.36608   1.00
H2       0.31037    0.52733    0.38239   1.00
C5       0.22071    0.48853    0.36312   1.00
H2       0.31748    0.58351    0.36177   1.00
H2       0.19988    0.44108    0.37234   1.00
H2       0.21096    0.47226    0.34694   1.00
C5       0.18526    0.52936    0.36874   1.00
H2       0.19990    0.54975    0.38439   1.00
H2       0.12880    0.49637    0.36803   1.00
H2       0.19918    0.57240    0.35793   1.00
C5       0.42310    0.33503    0.33828   1.00
H2       0.44566    0.30148    0.33647   1.00
H2       0.44885    0.37717    0.32706   1.00
C5       0.34576    0.29512    0.33428   1.00
H2       0.33522    0.26759    0.31959   1.00
C5       0.30880    0.37801    0.29681   1.00
H2       0.35835    0.42360    0.29290   1.00
H2       0.31638    0.33353    0.29485   1.00
C5       0.29053    0.38326    0.31911   1.00
H2       0.31787    0.36681    0.32970   1.00
H2       0.23462    0.35057    0.32151   1.00
O_3      0.05595    0.24803    0.22274   1.00
C4       0.19059    0.35540    0.21729   1.00
C3c      0.22699    0.35409    0.23436   1.00
H1       0.23353    0.31055    0.23695   1.00
C3d      0.18349    0.41304    0.21405   1.00
C3       0.25459    0.40805    0.24846   1.00
O2       0.29652    0.40699    0.26340   1.00
C3       0.20978    0.46627    0.22826   1.00
H1       0.20098    0.50831    0.22551   1.00
C2       0.24609    0.46543    0.24573   1.00
C5       0.00690    0.26539    0.21650   1.00
H2       -0.02963   0.22852    0.20523   1.00
H2       0.03174    0.31735    0.20961   1.00
C5       -0.03283   0.26447    0.23519   1.00
H2       0.00389    0.29989    0.24668   1.00
H2       -0.05792   0.21221    0.24183   1.00
C5       -0.08588   0.28524    0.22986   1.00
H2       -0.12242   0.25037    0.21829   1.00
H2       -0.06068   0.33829    0.22389   1.00
H2       -0.11541   0.28281    0.24362   1.00
C5       0.18406    0.44013    0.18070   1.00
C5       0.25802    0.37570    0.28105   1.00
H2       0.20415    0.40656    0.17576   1.00
H2       0.22790    0.49268    0.18310   1.00
H2       0.21854    0.32179    0.27776   1.00
H2       0.23100    0.40216    0.28695   1.00
H2       0.30646    0.43707    0.32325   1.00
H2       0.17304    0.40467    0.13823   1.00
H2       0.22355    0.49602    0.14260   1.00
C2       0.09894    0.18960    0.17511   1.00
C3       0.16770    0.24103    0.17268   1.00
O2       0.20070    0.24829    0.15447   1.00
C3       0.06285    0.19269    0.19222   1.00
H1       0.01070    0.15317    0.19480   1.00
C3a      0.19799    0.29467    0.18690   1.00
H1       0.24942    0.33569    0.18420   1.00
C3b      0.09243    0.24725    0.20598   1.00
C4       0.16046    0.29889    0.20337   1.00
O_3      0.14378    0.41460    0.19833   1.00
C5       0.24387    0.22020    0.15586   1.00
H2       0.28314    0.24585    0.16795   1.00
C5       0.27926    0.23127    0.13529   1.00
H2       0.21406    0.16455    0.15922   1.00
H2       0.32216    0.28485    0.13456   1.00
H2       0.24204    0.22618    0.12339   1.00
C5       0.30515    0.18094    0.13134   1.00
H2       0.33792    0.18286    0.14416   1.00
H2       0.33548    0.19418    0.11707   1.00
H2       0.26187    0.12762    0.12945   1.00
C5       0.13870    0.44210    0.16398   1.00
H2       0.12831    0.48427    0.16732   1.00
H2       0.08879    0.39371    0.16457   1.00
C5       0.17109    0.45109    0.14285   1.00
H2       0.14015    0.45944    0.13135   1.00
C5       0.39016    0.57903    0.21967   1.00
H2       0.39876    0.56482    0.23505   1.00
H2       0.40671    0.55249    0.20886   1.00
C5       0.31344    0.55436    0.21683   1.00
H2       0.28470    0.49927    0.21276   1.00
H2       0.30649    0.58426    0.20461   1.00
O_3      0.63582    0.89267    0.18080   1.00
C4       0.64550    0.83508    0.21761   1.00
C3c      0.59312    0.76663    0.21712   1.00
H1       0.59432    0.73252    0.20587   1.00
C3d      0.64348    0.87845    0.23258   1.00
C3       0.53812    0.74136    0.23085   1.00
O2       0.49335    0.67217    0.23106   1.00
C3       0.58812    0.85377    0.24601   1.00
H1       0.58754    0.88952    0.25676   1.00
C2       0.53434    0.78487    0.24559   1.00
C5       0.64771    0.95972    0.18318   1.00
H2       0.68885    0.99665    0.17295   1.00
H2       0.66225    0.97772    0.19912   1.00
C5       0.58197    0.95891    0.17793   1.00
H2       0.54043    0.92062    0.18776   1.00
H2       0.56829    0.94149    0.16193   1.00
C5       0.58971    1.02965    0.18082   1.00
H2       0.63143    1.06825    0.17115   1.00
H2       0.60104    1.04608    0.19694   1.00
H2       0.54165    1.02841    0.17649   1.00
C5       0.74817    0.95855    0.24425   1.00
C5       0.43747    0.65629    0.21815   1.00
H2       0.77359    0.93207    0.23745   1.00
H2       0.73385    0.94074    0.26022   1.00
H2       0.45547    0.67111    0.20222   1.00
H2       0.40963    0.68354    0.22255   1.00
H2       0.29019    0.55965    0.23118   1.00
H2       0.89482    1.03462    0.24026   1.00
H2       0.86663    1.02714    0.26643   1.00
C2       0.80996    0.91683    0.17487   1.00
C3       0.81447    0.88493    0.19273   1.00
O2       0.87661    0.89438    0.19915   1.00
C3       0.74898    0.91789    0.17110   1.00
H1       0.74324    0.94035    0.15731   1.00
C3a      0.75942    0.85674    0.20652   1.00
H1       0.76517    0.83598    0.22067   1.00
C3b      0.69520    0.89176    0.18514   1.00
C4       0.70016    0.86100    0.20304   1.00
O_3      0.69098    0.94739    0.23273   1.00
C5       0.88238    0.83678    0.19430   1.00
H2       0.84114    0.78977    0.20167   1.00
C5       0.95178    0.85071    0.20217   1.00
H2       0.87973    0.82846    0.17758   1.00
H2       0.94750    0.84054    0.21879   1.00
H2       0.98828    0.90623    0.20023   1.00
C5       0.97803    0.80807    0.19125   1.00
H2       0.93865    0.75316    0.19197   1.00
H2       1.02559    0.81528    0.19850   1.00
H2       0.99086    0.82393    0.17504   1.00
C5       0.79830    1.03494    0.24432   1.00
H2       0.77739    1.06012    0.25416   1.00
H2       0.80122    1.05460    0.22864   1.00
C5       0.86967    1.05166    0.25155   1.00
H2       0.90275    1.10766    0.25342   1.00
C5       0.39680    0.76843    0.21284   1.00
H2       0.42099    0.79723    0.22694   1.00
H2       0.42199    0.80492    0.20018   1.00
C5       0.40938    0.70747    0.21097   1.00
H2       0.46107    0.72429    0.20470   1.00
H2       0.37045    0.66782    0.20083   1.00
O_3      0.08395    0.73213    0.18486   1.00
C4       0.16508    0.81054    0.21759   1.00
C3c      0.22899    0.81573    0.21482   1.00
H1       0.25956    0.84246    0.20175   1.00
C3d      0.12649    0.77634    0.23488   1.00
C3       0.25405    0.78592    0.22859   1.00
O2       0.32029    0.80019    0.22623   1.00
C3       0.15071    0.74549    0.24841   1.00
H1       0.11825    0.71774    0.26106   1.00
C2       0.21490    0.74961    0.24571   1.00
C5       0.01610    0.68591    0.19065   1.00
H2       -0.02167   0.69211    0.18141   1.00
H2       0.00745    0.69249    0.20695   1.00
C5       0.00395    0.61424    0.18742   1.00
H2       0.04292    0.60866    0.19621   1.00
H2       0.01211    0.60803    0.17107   1.00
C5       -0.06819   0.56052    0.19405   1.00
H2       -0.10735   0.56610    0.18544   1.00
H2       -0.07559   0.56516    0.21054   1.00
H2       -0.07663   0.50848    0.19117   1.00
C5       0.06416    0.82150    0.24776   1.00
C5       0.32175    0.74905    0.21430   1.00
H2       0.09271    0.86920    0.23878   1.00
H2       0.08885    0.82937    0.26293   1.00
H2       0.30081    0.74780    0.19888   1.00
H2       0.29077    0.69700    0.22103   1.00
H2       0.40742    0.68444    0.22613   1.00
H2       0.00473    0.90790    0.24369   1.00
H2       0.02150    0.89635    0.26993   1.00
C2       0.08277    0.89339    0.17509   1.00
C3       0.12629    0.93476    0.19076   1.00
O2       0.12933    0.99540    0.19573   1.00
C3       0.07015    0.82577    0.17328   1.00
H1       0.03849    0.79337    0.16113   1.00
C3a      0.15445    0.90753    0.20443   1.00
H1       0.18450    0.93860    0.21703   1.00
C3b      0.09646    0.79817    0.18728   1.00
C4       0.13886    0.83902    0.20304   1.00
O_3      0.06111    0.76536    0.23751   1.00
C5       0.18870    1.05088    0.18751   1.00
H2       0.23568    1.05231    0.19336   1.00
C5       0.18888    1.11591    0.19396   1.00
H2       0.18860    1.04796    0.17063   1.00
H2       0.20740    1.12792    0.20989   1.00
H2       0.13491    1.10427    0.19409   1.00
C5       0.23256    1.17708    0.17996   1.00
H2       0.28482    1.18456    0.17875   1.00
H2       0.23610    1.22457    0.18609   1.00
H2       0.20958    1.16927    0.16449   1.00
C5       -0.00873   0.80662    0.25064   1.00
H2       -0.03366   0.76625    0.26241   1.00
H2       -0.03702   0.78508    0.23621   1.00
C5       -0.01152   0.87095    0.25655   1.00
H2       -0.06460   0.85696    0.26058   1.00
C5       1.03167    0.59871    0.53157   1.00
H2       1.07231    0.65251    0.53385   1.00
H2       0.98274    0.59893    0.53193   1.00
C5       1.04144    0.57336    0.51072   1.00
H2       1.02005    0.59044    0.49832   1.00
H2       1.01554    0.51667    0.51061   1.00
O_3      0.92894    0.38286    0.61535   1.00
C4       1.02200    0.52401    0.61603   1.00
C3c      1.01570    0.54891    0.59712   1.00
H1       0.96821    0.54634    0.59308   1.00
C3d      1.08464    0.52872    0.62112   1.00
C3       1.06982    0.57646    0.58307   1.00
O2       1.06280    0.60730    0.56598   1.00
C3       1.13819    0.55494    0.60701   1.00
H1       1.18444    0.55530    0.61130   1.00
C2       1.13244    0.57966    0.58774   1.00
C5       0.95502    0.34452    0.62468   1.00
H2       0.92078    0.31057    0.63688   1.00
H2       1.00627    0.37855    0.63145   1.00
C5       0.96143    0.30049    0.60843   1.00
H2       0.99409    0.33427    0.59597   1.00
H2       0.90989    0.26630    0.60192   1.00
C5       0.99185    0.25873    0.61717   1.00
H2       0.95974    0.22522    0.62972   1.00
H2       1.04427    0.29285    0.62304   1.00
H2       0.99475    0.22575    0.60518   1.00
C5       1.11169    0.54850    0.65470   1.00
C5       1.03645    0.55974    0.54989   1.00
H2       1.07227    0.56308    0.65758   1.00
H2       1.16105    0.59556    0.65125   1.00
H2       0.98489    0.51675    0.55393   1.00
H2       1.06942    0.53732    0.54625   1.00
H2       1.09672    0.59482    0.50714   1.00
H2       1.07315    0.55143    0.69629   1.00
H2       1.16309    0.61010    0.69155   1.00
C2       0.85689    0.43268    0.65844   1.00
C3       0.90078    0.50404    0.65836   1.00
O2       0.90226    0.54289    0.67468   1.00
C3       0.86692    0.39326    0.64365   1.00
H1       0.83311    0.33873    0.64298   1.00
C3a      0.95413    0.53391    0.64403   1.00
H1       0.98965    0.58810    0.64490   1.00
C3b      0.92133    0.42286    0.62984   1.00
C4       0.96556    0.49367    0.62997   1.00
O_3      1.09179    0.50030    0.63888   1.00
C5       0.86537    0.57631    0.67018   1.00
H2       0.88720    0.61048    0.65673   1.00
C5       0.87041    0.61898    0.68880   1.00
H2       0.81077    0.53876    0.66707   1.00
H2       0.92085    0.66676    0.68852   1.00
H2       0.87026    0.59000    0.70247   1.00
C5       0.81219    0.63552    0.68995   1.00
H2       0.80970    0.65958    0.67553   1.00
H2       0.82071    0.67124    0.70268   1.00
H2       0.76194    0.58861    0.69283   1.00
C5       1.12015    0.51552    0.67377   1.00
H2       1.16713    0.51179    0.67215   1.00
H2       1.07637    0.46240    0.67470   1.00
C5       1.12340    0.55541    0.69305   1.00
H2       1.13666    0.53414    0.70634   1.00
C5       0.58168    -0.03681   0.53356   1.00
H2       0.59078    -0.07982   0.53663   1.00
H2       0.63237    0.01021    0.53461   1.00
C5       0.55176    -0.04435   0.51199   1.00
H2       0.59290    -0.02504   0.50036   1.00
H2       0.52421    -0.01529   0.51081   1.00
O_3      0.46292    0.07778    0.61310   1.00
C4       0.50194    -0.02203   0.61604   1.00
C3c      0.53636    -0.01781   0.59790   1.00
H1       0.58384    0.02804    0.59447   1.00
C3d      0.44064    -0.08259   0.62036   1.00
C3       0.50988    -0.07186   0.58383   1.00
O2       0.55037    -0.06737   0.56766   1.00
C3       0.41348    -0.13599   0.60620   1.00
H1       0.36512    -0.18048   0.60984   1.00
C2       0.44725    -0.13228   0.58768   1.00
C5       0.39722    0.05552    0.62107   1.00
H2       0.39742    0.09092    0.63286   1.00
H2       0.37544    0.00376    0.62796   1.00
C5       0.35187    0.05258    0.60366   1.00
H2       0.35319    0.01871    0.59163   1.00
H2       0.37375    0.10464    0.59703   1.00
C5       0.27854    0.02640    0.61090   1.00
H2       0.27690    0.05973    0.62301   1.00
H2       0.25583    -0.02649   0.61688   1.00
H2       0.24651    0.02604    0.59806   1.00
C5       0.42444    -0.11005   0.65397   1.00
C5       0.53546    -0.03855   0.55078   1.00
H2       0.47852    -0.07322   0.65776   1.00
H2       0.41930    -0.16095   0.65103   1.00
H2       0.54665    0.01417    0.55445   1.00
H2       0.48068    -0.06860   0.54612   1.00
H2       0.51600    -0.09906   0.50819   1.00
H2       0.45813    -0.07321   0.69606   1.00
H2       0.42249    -0.16397   0.69155   1.00
C2       0.57586    0.14339    0.65835   1.00
C3       0.59894    0.09596    0.65945   1.00
O2       0.63114    0.09169    0.67669   1.00
C3       0.53089    0.13664    0.64245   1.00
H1       0.51369    0.17314    0.64088   1.00
C3a      0.57553    0.04249    0.64516   1.00
H1       0.59059    0.00437    0.64690   1.00
C3b      0.50601    0.08216    0.62867   1.00
C4       0.52816    0.03445    0.62997   1.00
O_3      0.40220    -0.08739   0.63724   1.00
C5       0.70226    0.12471    0.67356   1.00
H2       0.71535    0.10122    0.66071   1.00
C5       0.73396    0.11673    0.69314   1.00
H2       0.72334    0.17995    0.67028   1.00
H2       0.72771    0.06474    0.69336   1.00
H2       0.70340    0.11900    0.70604   1.00
C5       0.80972    0.17149    0.69552   1.00
H2       0.83845    0.17212    0.68178   1.00
H2       0.83243    0.16068    0.70900   1.00
H2       0.81604    0.22323    0.69792   1.00
C5       0.38000    -0.11575   0.67203   1.00
H2       0.32823    -0.16064   0.66966   1.00
H2       0.37410    -0.06978   0.67223   1.00
C5       0.41073    -0.12181   0.69222   1.00
H2       0.37379    -0.13300   0.70475   1.00
C5       0.38214    0.41877    0.53349   1.00
H2       0.32996    0.40954    0.53654   1.00
H2       0.37857    0.36813    0.53452   1.00
C5       0.40462    0.44886    0.51194   1.00
H2       0.38294    0.40780    0.50028   1.00
H2       0.46125    0.47652    0.51080   1.00
O_3      0.61494    0.53738    0.61317   1.00
C4       0.47602    0.49806    0.61604   1.00
C3c      0.44599    0.46373    0.59787   1.00
H1       0.44449    0.41633    0.59442   1.00
C3d      0.47658    0.55925    0.62038   1.00
C3       0.41842    0.49022    0.58380   1.00
O2       0.38258    0.44980    0.56760   1.00
C3       0.45034    0.58642    0.60623   1.00
H1       0.45408    0.63470    0.60989   1.00
C2       0.42045    0.55275    0.58768   1.00
C5       0.65822    0.60305    0.62119   1.00
H2       0.69338    0.60285    0.63299   1.00
H2       0.62811    0.62469    0.62807   1.00
C5       0.70069    0.64857    0.60381   1.00
H2       0.66554    0.64725    0.59177   1.00
H2       0.73101    0.62684    0.59718   1.00
C5       0.74768    0.72188    0.61110   1.00
H2       0.78260    0.72351    0.62323   1.00
H2       0.71737    0.74444    0.61708   1.00
H2       0.77939    0.75403    0.59829   1.00
C5       0.46505    0.57517    0.65400   1.00
C5       0.42645    0.46492    0.55074   1.00
H2       0.44787    0.52108    0.65776   1.00
H2       0.41924    0.58022    0.65104   1.00
H2       0.46803    0.45382    0.55443   1.00
H2       0.45110    0.51973    0.54612   1.00
H2       0.38559    0.48456    0.50815   1.00
H2       0.46799    0.54123    0.69608   1.00
H2       0.41276    0.57673    0.69156   1.00
C2       0.56752    0.42414    0.65835   1.00
C3       0.49697    0.40092    0.65941   1.00
O2       0.46041    0.36854    0.67662   1.00
C3       0.60578    0.46926    0.64249   1.00
H1       0.65951    0.48658    0.64094   1.00
C3a      0.46691    0.42433    0.64513   1.00
H1       0.41369    0.40915    0.64684   1.00
C3b      0.57618    0.49414    0.62870   1.00
C4       0.50627    0.47184    0.62997   1.00
O_3      0.51007    0.59761    0.63730   1.00
C5       0.42246    0.29745    0.67346   1.00
H2       0.38595    0.28437    0.66058   1.00
C5       0.38268    0.26554    0.69300   1.00
H2       0.45673    0.27649    0.67018   1.00
H2       0.33687    0.27168    0.69321   1.00
H2       0.41539    0.29606    0.70593   1.00
C5       0.36181    0.18981    0.69535   1.00
H2       0.33384    0.16115    0.68158   1.00
H2       0.32822    0.16696    0.70880   1.00
H2       0.40728    0.18358    0.69776   1.00
C5       0.50359    0.61952    0.67209   1.00
H2       0.51037    0.67126    0.66975   1.00
H2       0.55552    0.62554    0.67232   1.00
C5       0.46670    0.58860    0.69226   1.00
H2       0.49231    0.62547    0.70481   1.00
C5       0.29514    -0.31093   0.12765   1.00
H2       0.25559    -0.31408   0.11704   1.00
H2       0.27831    -0.30568   0.14304   1.00
C5       0.29905    -0.37711   0.12621   1.00
H2       0.25809    -0.41853   0.13543   1.00
H2       0.34951    -0.36760   0.13175   1.00
O_3      0.59142    0.00339    0.13864   1.00
C4       0.47625    -0.02132   0.11579   1.00
C3c      0.42417    -0.08655   0.12150   1.00
H1       0.40525    -0.09557   0.13690   1.00
C3d      0.49949    -0.01040   0.09558   1.00
C3       0.39642    -0.14117   0.10762   1.00
O2       0.34010    -0.20116   0.11359   1.00
C3       0.47288    -0.06499   0.08183   1.00
H1       0.49400    -0.05474   0.06668   1.00
C2       0.42072    -0.13146   0.08740   1.00
C5       0.65252    0.03719    0.12736   1.00
H2       0.69160    0.08491    0.13492   1.00
H2       0.64307    0.05061    0.11188   1.00
C5       0.68067    -0.01099   0.12548   1.00
H2       0.64089    -0.05942   0.11845   1.00
H2       0.69051    -0.02353   0.14102   1.00
C5       0.74615    0.02097    0.11276   1.00
H2       0.78593    0.06960    0.11963   1.00
H2       0.73588    0.03132    0.09704   1.00
H2       0.76678    -0.01438   0.11193   1.00
C5       0.53024    0.09545    0.08343   1.00
C5       0.36076    -0.24561   0.12185   1.00
H2       0.50479    0.10629    0.09615   1.00
H2       0.49363    0.07357    0.07053   1.00
H2       0.39308    -0.22211   0.13555   1.00
H2       0.39126    -0.25732   0.11090   1.00
H2       0.29125    -0.39645   0.11027   1.00
H2       0.56591    0.23552    0.09009   1.00
H2       0.52958    0.20438    0.06512   1.00
C2       0.56798    0.14484    0.15785   1.00
C3       0.50812    0.13120    0.14735   1.00
O2       0.48825    0.17966    0.14649   1.00
C3       0.59436    0.10053    0.15485   1.00
H1       0.63909    0.10854    0.16305   1.00
C3a      0.47732    0.07541    0.13386   1.00
H1       0.43380    0.06796    0.12508   1.00
C3b      0.56488    0.04640    0.14094   1.00
C4       0.50598    0.03353    0.13028   1.00
O_3      0.55414    0.05144    0.08959   1.00
C5       0.43462    0.16338    0.16029   1.00
H2       0.38942    0.11254    0.15682   1.00
C5       0.41485    0.21860    0.15817   1.00
H2       0.45119    0.16278    0.17617   1.00
H2       0.38183    0.20698    0.14454   1.00
H2       0.46243    0.26765    0.15502   1.00
C5       0.37862    0.22503    0.17715   1.00
H2       0.33437    0.17438    0.18100   1.00
H2       0.36000    0.26147    0.17440   1.00
H2       0.41407    0.24511    0.19041   1.00
C5       0.59177    0.16213    0.07664   1.00
H2       0.61003    0.15335    0.06188   1.00
H2       0.63357    0.17608    0.08784   1.00
C5       0.57514    0.22006    0.07487   1.00
H2       0.61880    0.26569    0.06790   1.00
C5       1.07287    0.37260    0.04683   1.00
H2       1.07768    0.41194    0.03584   1.00
H2       1.01946    0.33002    0.04552   1.00
C5       1.12335    0.34807    0.04105   1.00
H2       1.10208    0.30941    0.02870   1.00
H2       1.13406    0.32520    0.05450   1.00
O_3      1.01770    0.41603    0.14822   1.00
C4       1.02145    0.49880    0.11582   1.00
C3c      1.01825    0.46307    0.09807   1.00
H1       0.97307    0.41475    0.09488   1.00
C3d      1.08039    0.56214    0.11955   1.00
C3       1.07325    0.48835    0.08434   1.00
O2       1.06325    0.45484    0.06615   1.00
C3       1.13575    0.58683    0.10611   1.00
H1       1.18081    0.63446    0.10996   1.00
C2       1.13367    0.55099    0.08819   1.00
C5       1.06183    0.45399    0.16424   1.00
H2       1.03469    0.44331    0.17906   1.00
H2       1.08670    0.50988    0.16123   1.00
C5       1.11640    0.43388    0.16582   1.00
H2       1.14224    0.44274    0.15083   1.00
H2       1.09105    0.37813    0.16901   1.00
C5       1.16819    0.47474    0.18247   1.00
H2       1.14266    0.46649    0.19746   1.00
H2       1.19523    0.53023    0.17894   1.00
H2       1.20681    0.45827    0.18370   1.00
C5       1.05966    0.63944    0.13543   1.00
C5       1.08465    0.40609    0.06773   1.00
H2       1.00401    0.60923    0.13230   1.00
H2       1.08471    0.67736    0.12299   1.00
H2       1.05380    0.36718    0.07945   1.00
H2       1.13949    0.42945    0.07220   1.00
H2       1.17236    0.39106    0.03515   1.00
H2       0.97081    0.67170    0.15840   1.00
H2       1.03320    0.74331    0.14346   1.00
C2       0.85909    0.42099    0.15926   1.00
C3       0.85804    0.45938    0.14253   1.00
O2       0.81546    0.48658    0.14253   1.00
C3       0.91284    0.40637    0.16065   1.00
H1       0.91415    0.37563    0.17299   1.00
C3a      0.91094    0.48352    0.12803   1.00
H1       0.91149    0.51610    0.11595   1.00
C3b      0.96651    0.43229    0.14657   1.00
C4       0.96596    0.47132    0.13012   1.00
O_3      1.08817    0.59681    0.13753   1.00
C5       0.75774    0.44679    0.13032   1.00
H2       0.77268    0.44453    0.11433   1.00
C5       0.71389    0.48078    0.13084   1.00
H2       0.72767    0.39378    0.13630   1.00
H2       0.73618    0.52470    0.12014   1.00
H2       0.71860    0.50250    0.14631   1.00
C5       0.63847    0.43122    0.12562   1.00
H2       0.63509    0.40599    0.11087   1.00
H2       0.60953    0.45892    0.12448   1.00
H2       0.61297    0.39163    0.13767   1.00
C5       1.07051    0.67736    0.15539   1.00
H2       1.12558    0.71622    0.15676   1.00
H2       1.05836    0.64038    0.16803   1.00
C5       1.02592    0.71084    0.15695   1.00
H2       1.04028    0.74376    0.17065   1.00
C5       0.61293    0.66891    0.04070   1.00
H2       0.56797    0.63381    0.03142   1.00
H2       0.65052    0.65144    0.03875   1.00
C5       0.64262    0.74268    0.03273   1.00
H2       0.67573    0.75157    0.01927   1.00
H2       0.67317    0.77980    0.04482   1.00
O_3      0.60013    0.60649    0.14443   1.00
C4       0.50112    0.52266    0.11585   1.00
C3c      0.53129    0.54599    0.09674   1.00
H1       0.57517    0.54183    0.09249   1.00
C3d      0.44338    0.52766    0.12098   1.00
C3       0.50618    0.57578    0.08298   1.00
O2       0.53300    0.58973    0.06369   1.00
C3       0.41906    0.55848    0.10747   1.00
H1       0.37614    0.56338    0.11236   1.00
C2       0.44941    0.58302    0.08817   1.00
C5       0.57198    0.62361    0.16097   1.00
H2       0.58563    0.61010    0.17583   1.00
H2       0.51524    0.59721    0.15988   1.00
C5       0.60042    0.70022    0.16041   1.00
H2       0.58845    0.71398    0.14534   1.00
H2       0.65702    0.72605    0.16170   1.00
C5       0.57042    0.72298    0.17754   1.00
H2       0.58177    0.70897    0.19262   1.00
H2       0.51416    0.69904    0.17586   1.00
H2       0.59293    0.77928    0.17715   1.00
C5       0.36593    0.44013    0.14061   1.00
C5       0.58740    0.65780    0.06263   1.00
H2       0.38956    0.40825    0.13745   1.00
H2       0.32439    0.42715    0.12936   1.00
H2       0.62899    0.66531    0.07325   1.00
H2       0.57139    0.69561    0.06683   1.00
H2       0.60124    0.75258    0.02765   1.00
H2       0.33012    0.32486    0.16683   1.00
H2       0.25685    0.31928    0.15374   1.00
C2       0.57971    0.43869    0.15923   1.00
C3       0.53279    0.39628    0.14435   1.00
O2       0.49901    0.32632    0.14652   1.00
C3       0.60221    0.50930    0.15873   1.00
H1       0.63943    0.54339    0.16959   1.00
C3a      0.50831    0.42463    0.12982   1.00
H1       0.46950    0.39090    0.11926   1.00
C3b      0.57613    0.53697    0.14468   1.00
C4       0.52870    0.49459    0.13009   1.00
O_3      0.41498    0.51022    0.14016   1.00
C5       0.52889    0.29790    0.13398   1.00
H2       0.52686    0.31010    0.11767   1.00
C5       0.48804    0.22054    0.13699   1.00
H2       0.58313    0.31723    0.13827   1.00
H2       0.44054    0.19974    0.12780   1.00
H2       0.47186    0.21092    0.15318   1.00
C5       0.52871    0.18494    0.13137   1.00
H2       0.54901    0.19945    0.11570   1.00
H2       0.49564    0.12850    0.13211   1.00
H2       0.57181    0.19885    0.14216   1.00
C5       0.33528    0.42362    0.16182   1.00
H2       0.30183    0.44629    0.16363   1.00
H2       0.37751    0.44938    0.17301   1.00
C5       0.29528    0.34632    0.16586   1.00
H2       0.26785    0.33591    0.18057   1.00
C5       0.35346    0.64797    0.70516   1.00
H2       0.34721    0.60475    0.71468   1.00
H2       0.35713    0.63381    0.68927   1.00
C5       0.29046    0.65693    0.70775   1.00
H2       0.24750    0.62004    0.69806   1.00
H2       0.30367    0.70971    0.70350   1.00
O_3      0.67834    0.93220    0.69761   1.00
C4       0.64530    0.80952    0.71753   1.00
C3c      0.57865    0.76218    0.71141   1.00
H1       0.56850    0.74699    0.69567   1.00
C3d      0.65761    0.82789    0.73816   1.00
C3       0.52411    0.73449    0.72531   1.00
O2       0.46213    0.68241    0.71873   1.00
C3       0.60320    0.80140    0.75197   1.00
H1       0.61471    0.81882    0.76750   1.00
C2       0.53536    0.75404    0.74600   1.00
C5       0.71564    0.99005    0.71003   1.00
H2       0.76448    1.02850    0.70284   1.00
H2       0.72769    0.97551    0.72499   1.00
C5       0.67182    1.02257    0.71344   1.00
H2       0.62224    0.98358    0.72010   1.00
H2       0.66065    1.03745    0.69843   1.00
C5       0.70772    1.08474    0.72746   1.00
H2       0.75749    1.12369    0.72098   1.00
H2       0.71677    1.06955    0.74268   1.00
H2       0.67558    1.10871    0.72942   1.00
C5       0.76139    0.84839    0.74947   1.00
C5       0.42130    0.70929    0.71176   1.00
H2       0.76970    0.82423    0.73592   1.00
H2       0.73746    0.80915    0.76165   1.00
H2       0.44642    0.74414    0.69865   1.00
H2       0.41257    0.73917    0.72372   1.00
H2       0.27130    0.64659    0.72372   1.00
H2       0.89831    0.87574    0.74165   1.00
H2       0.86554    0.83466    0.76600   1.00
C2       0.81179    0.90128    0.67559   1.00
C3       0.79386    0.83791    0.68459   1.00
O2       0.83861    0.81329    0.68413   1.00
C3       0.77153    0.93139    0.68001   1.00
H1       0.78285    0.97900    0.67296   1.00
C3a      0.73795    0.80726    0.69804   1.00
H1       0.72727    0.76071    0.70569   1.00
C3b      0.71733    0.90186    0.69389   1.00
C4       0.70021    0.83940    0.70306   1.00
O_3      0.72123    0.87809    0.74469   1.00
C5       0.81868    0.76239    0.66913   1.00
H2       0.76635    0.71882    0.67211   1.00
C5       0.86990    0.73703    0.66982   1.00
H2       0.81947    0.78337    0.65377   1.00
H2       0.85609    0.70053    0.68266   1.00
H2       0.92070    0.78161    0.67353   1.00
C5       0.87313    0.70356    0.64979   1.00
H2       0.82107    0.66272    0.64550   1.00
H2       0.90648    0.68073    0.65143   1.00
H2       0.89524    0.74181    0.63725   1.00
C5       0.83018    0.90514    0.75692   1.00
H2       0.82326    0.92120    0.77228   1.00
H2       0.84695    0.94995    0.74671   1.00
C5       0.88426    0.88290    0.75731   1.00
H2       0.93147    0.92278    0.76477   1.00
C5       0.42863    0.60028    0.72313   1.00
H2       0.40779    0.63542    0.72268   1.00
H2       0.44410    0.59756    0.70732   1.00
C5       0.49121    0.62969    0.73741   1.00
H2       0.53775    0.66909    0.72949   1.00
H2       0.50015    0.58816    0.74274   1.00
O_3      0.19763    0.25147    0.72160   1.00
C4       0.16440    0.35515    0.71737   1.00
C3c      0.22644    0.41553    0.71399   1.00
H1       0.25534    0.42083    0.70039   1.00
C3d      0.12705    0.34966    0.73506   1.00
C3       0.25263    0.46938    0.72813   1.00
O2       0.30921    0.52989    0.72265   1.00
C3       0.15362    0.40266    0.74935   1.00
H1       0.12434    0.39516    0.76302   1.00
C2       0.21664    0.46377    0.74628   1.00
C5       0.15913    0.20395    0.73687   1.00
H2       0.13203    0.15054    0.73108   1.00
H2       0.12045    0.21522    0.74347   1.00
C5       0.20823    0.20940    0.75344   1.00
H2       0.23669    0.26322    0.75883   1.00
H2       0.24621    0.19743    0.74673   1.00
C5       0.17011    0.16095    0.77107   1.00
H2       0.14119    0.10716    0.76577   1.00
H2       0.13387    0.17436    0.77824   1.00
H2       0.20698    0.16455    0.78283   1.00
C5       0.01167    0.28900    0.73080   1.00
C5       0.36892    0.53107    0.72954   1.00
H2       0.01597    0.29127    0.71398   1.00
H2       0.00598    0.33265    0.73615   1.00
H2       0.37346    0.48889    0.72236   1.00
H2       0.36915    0.52460    0.74636   1.00
H2       0.48385    0.65552    0.75083   1.00
H2       -0.10686   0.19535    0.70763   1.00
H2       -0.12217   0.25199    0.72350   1.00
C2       0.08588    0.18665    0.67609   1.00
C3       0.07150    0.23991    0.67305   1.00
O2       0.01948    0.23091    0.66023   1.00
C3       0.12917    0.19228    0.69236   1.00
H1       0.14258    0.15325    0.69478   1.00
C3a      0.09885    0.29602    0.68645   1.00
H1       0.08422    0.33443    0.68462   1.00
C3b      0.15450    0.24706    0.70604   1.00
C4       0.13931    0.29944    0.70319   1.00
O_3      0.06834    0.28939    0.73984   1.00
C5       0.04634    0.26350    0.64150   1.00
H2       0.08162    0.31938    0.64357   1.00
C5       -0.01414   0.25221    0.62834   1.00
H2       0.07458    0.24129    0.63378   1.00
H2       -0.03022   0.28925    0.63310   1.00
H2       -0.05745   0.20047    0.63192   1.00
C5       0.00202    0.25901    0.60546   1.00
H2       0.04859    0.30880    0.60240   1.00
H2       -0.04103   0.25619    0.59652   1.00
H2       0.00979    0.21669    0.59992   1.00
C5       -0.05165   0.22255    0.73677   1.00
H2       -0.06246   0.22553    0.75310   1.00
H2       -0.03993   0.18047    0.73527   1.00
C5       -0.11363   0.20768    0.72355   1.00
H2       -0.16026   0.16290    0.72966   1.00
C5       0.18125    0.57548    0.72114   1.00
H2       0.23751    0.59815    0.72121   1.00
H2       0.16513    0.56152    0.70512   1.00
C5       0.14835    0.51119    0.73475   1.00
H2       0.14385    0.46629    0.72645   1.00
H2       0.09668    0.49981    0.73967   1.00
O_3      0.05209    0.79719    0.72045   1.00
C4       0.19074    0.83563    0.71738   1.00
C3c      0.19192    0.77522    0.71356   1.00
H1       0.17058    0.74763    0.69960   1.00
C3d      0.21970    0.87133    0.73553   1.00
C3       0.21956    0.74898    0.72768   1.00
O2       0.22647    0.69440    0.72183   1.00
C3       0.24608    0.84465    0.74980   1.00
H1       0.26555    0.87254    0.76382   1.00
C2       0.24701    0.78323    0.74627   1.00
C5       0.03963    0.83270    0.73592   1.00
H2       0.01238    0.85888    0.73015   1.00
H2       0.08822    0.87175    0.74312   1.00
C5       -0.00475   0.78092    0.75184   1.00
H2       0.02162    0.75340    0.75720   1.00
H2       -0.05337   0.74257    0.74453   1.00
C5       -0.01881   0.81572    0.76965   1.00
H2       -0.04472   0.84369    0.76440   1.00
H2       0.02951    0.85230    0.77740   1.00
H2       -0.05255   0.77691    0.78092   1.00
C5       0.27130    0.98696    0.73245   1.00
C5       0.16845    0.63280    0.72791   1.00
H2       0.27131    0.98469    0.71560   1.00
H2       0.32073    0.99383    0.73817   1.00
H2       0.12184    0.62737    0.72039   1.00
H2       0.15973    0.63029    0.74466   1.00
H2       0.18036    0.51810    0.74843   1.00
H2       0.29451    1.10677    0.71031   1.00
H2       0.36540    1.12270    0.72676   1.00
C2       0.10058    0.91390    0.67608   1.00
C3       0.16926    0.93101    0.67360   1.00
O2       0.21246    0.98517    0.66144   1.00
C3       0.06210    0.86808    0.69178   1.00
H1       0.00892    0.85259    0.69375   1.00
C3a      0.19815    0.90376    0.68699   1.00
H1       0.25181    0.92039    0.68562   1.00
C3b      0.09157    0.84280    0.70547   1.00
C4       0.16013    0.86068    0.70318   1.00
O_3      0.21521    0.92818    0.74071   1.00
C5       0.22150    0.96134    0.64258   1.00
H2       0.24368    0.92737    0.64453   1.00
C5       0.27067    1.02408    0.63019   1.00
H2       0.17210    0.93263    0.63433   1.00
H2       0.32360    1.04134    0.63541   1.00
H2       0.25993    1.06572    0.63401   1.00
C5       0.26437    1.01063    0.60714   1.00
H2       0.26987    0.96552    0.60379   1.00
H2       0.30465    1.05544    0.59879   1.00
H2       0.21429    1.00171    0.60122   1.00
C5       0.26488    1.04811    0.73884   1.00
H2       0.27665    1.05729    0.75533   1.00
H2       0.21070    1.03470    0.73690   1.00
C5       0.31189    1.11224    0.72639   1.00
H2       0.31121    1.15724    0.73283   1.00
