data_IRMOF10_interpen_symm_ligand11lp_label_a_1.

_audit_creation_method             'generated by an auxiliary program of Tobunporous'

_symmetry_space_group_name_H-M     'P 1'
_symmetry_Int_Tables_number        1
_symmetry_cell_setting             triclinic

_cell_length_a                    22.6523
_cell_length_b                    22.6523
_cell_length_c                    65.9502
_cell_angle_alpha                 90.0000
_cell_angle_beta                  90.0000
_cell_angle_gamma                 120.0000

loop_
_atom_site_label
_atom_site_fract_x
_atom_site_fract_y
_atom_site_fract_z
_atom_site_occupancy
O1       0.00000    -0.00000   0.62500   1.00
Zn1      0.00000    -0.00000   0.59589   1.00
Zn1      0.94848    1.04288    0.63392   1.00
Zn1      0.09439    0.05152    0.63392   1.00
Zn1      -0.04288   0.90561    0.63392   1.00
O2       0.93860    0.02610    0.58587   1.00
O2       0.08750    0.06140    0.58587   1.00
O2       -0.02610   0.91250    0.58587   1.00
O2       0.91305    0.07161    0.61181   1.00
O2       0.00462    0.12022    0.65110   1.00
O2       0.87413    0.98074    0.65071   1.00
O2       0.15856    0.08695    0.61181   1.00
O2       0.10660    0.12587    0.65071   1.00
O2       0.11559    0.99538    0.65110   1.00
O2       -0.07161   0.84144    0.61181   1.00
O2       0.87978    0.88441    0.65110   1.00
O2       0.01926    0.89340    0.65071   1.00
C1       0.91390    0.06020    0.59358   1.00
C1       0.14630    0.08610    0.59358   1.00
C1       -0.06020   0.85370    0.59358   1.00
C1       0.06663    0.14397    0.65673   1.00
C1       0.85603    0.92267    0.65673   1.00
C1       0.07733    0.93337    0.65673   1.00
O1       -0.00000   0.00000    0.87500   1.00
Zn1      -0.00000   0.00000    0.90411   1.00
Zn1      1.04288    0.94848    0.86608   1.00
Zn1      0.05152    0.09439    0.86608   1.00
Zn1      0.90561    -0.04288   0.86608   1.00
O2       0.02610    0.93860    0.91413   1.00
O2       0.06140    0.08750    0.91413   1.00
O2       0.91250    -0.02610   0.91413   1.00
O2       0.07161    0.91305    0.88819   1.00
O2       0.12022    0.00462    0.84890   1.00
O2       0.98074    0.87413    0.84929   1.00
O2       0.08695    0.15856    0.88819   1.00
O2       0.12587    0.10660    0.84929   1.00
O2       0.99538    0.11559    0.84890   1.00
O2       0.84144    -0.07161   0.88819   1.00
O2       0.88441    0.87978    0.84890   1.00
O2       0.89340    0.01926    0.84929   1.00
C1       0.06020    0.91390    0.90642   1.00
C1       0.08610    0.14630    0.90642   1.00
C1       0.85370    -0.06020   0.90642   1.00
C1       0.14397    0.06663    0.84327   1.00
C1       0.92267    0.85603    0.84327   1.00
C1       0.93337    0.07733    0.84327   1.00
O1       0.00000    0.00000    0.37500   1.00
Zn1      0.00000    0.00000    0.40411   1.00
Zn1      0.05152    -0.04288   0.36608   1.00
Zn1      0.90561    0.94848    0.36608   1.00
Zn1      1.04288    0.09439    0.36608   1.00
O2       0.06140    -0.02610   0.41413   1.00
O2       0.91250    0.93860    0.41413   1.00
O2       0.02610    0.08750    0.41413   1.00
O2       0.08695    -0.07161   0.38819   1.00
O2       0.99538    0.87978    0.34890   1.00
O2       0.12587    0.01926    0.34929   1.00
O2       0.84144    0.91305    0.38819   1.00
O2       0.89340    0.87413    0.34929   1.00
O2       0.88441    0.00462    0.34890   1.00
O2       0.07161    0.15856    0.38819   1.00
O2       0.12022    0.11559    0.34890   1.00
O2       0.98074    0.10660    0.34929   1.00
C1       0.08610    -0.06020   0.40642   1.00
C1       0.85370    0.91390    0.40642   1.00
C1       0.06020    0.14630    0.40642   1.00
C1       0.93337    0.85603    0.34327   1.00
C1       0.14397    0.07733    0.34327   1.00
C1       0.92267    0.06663    0.34327   1.00
O1       0.00000    0.00000    0.12500   1.00
Zn1      0.00000    0.00000    0.09589   1.00
Zn1      -0.04288   0.05152    0.13392   1.00
Zn1      0.94848    0.90561    0.13392   1.00
Zn1      0.09439    1.04288    0.13392   1.00
O2       -0.02610   0.06140    0.08587   1.00
O2       0.93860    0.91250    0.08587   1.00
O2       0.08750    0.02610    0.08587   1.00
O2       -0.07161   0.08695    0.11181   1.00
O2       0.87978    0.99538    0.15110   1.00
O2       0.01926    0.12587    0.15071   1.00
O2       0.91305    0.84144    0.11181   1.00
O2       0.87413    0.89340    0.15071   1.00
O2       0.00462    0.88441    0.15110   1.00
O2       0.15856    0.07161    0.11181   1.00
O2       0.11559    0.12022    0.15110   1.00
O2       0.10660    0.98074    0.15071   1.00
C1       -0.06020   0.08610    0.09358   1.00
C1       0.91390    0.85370    0.09358   1.00
C1       0.14630    0.06020    0.09358   1.00
C1       0.85603    0.93337    0.15673   1.00
C1       0.07733    0.14397    0.15673   1.00
C1       0.06663    0.92267    0.15673   1.00
O1       0.66667    0.33333    0.95833   1.00
Zn1      0.66667    0.33333    0.92922   1.00
Zn1      0.61515    0.37621    0.96725   1.00
Zn1      0.76106    0.38485    0.96725   1.00
Zn1      -0.37621   0.23894    0.96725   1.00
O2       0.60527    0.35943    0.91920   1.00
O2       0.75417    0.39473    0.91920   1.00
O2       0.64057    0.24583    0.91920   1.00
O2       0.57972    0.40494    0.94514   1.00
O2       0.67129    0.45355    0.98443   1.00
O2       0.54080    0.31407    0.98404   1.00
O2       0.82523    0.42028    0.94514   1.00
O2       0.77327    0.45920    0.98404   1.00
O2       -0.21774   0.32871    0.98443   1.00
O2       0.59506    0.17477    0.94514   1.00
O2       0.54645    0.21774    0.98443   1.00
O2       -0.31407   0.22673    0.98404   1.00
C1       0.58057    0.39353    0.92691   1.00
C1       0.81297    0.41943    0.92691   1.00
C1       0.60647    0.18703    0.92691   1.00
C1       0.73330    0.47730    0.99006   1.00
C1       0.52270    0.25600    0.99006   1.00
C1       -0.25600   0.26670    0.99006   1.00
O1       0.66667    0.33333    0.20833   1.00
Zn1      0.66667    0.33333    0.23744   1.00
Zn1      0.70954    0.28182    0.19942   1.00
Zn1      0.71818    0.42773    0.19942   1.00
Zn1      0.57227    0.29046    0.19942   1.00
O2       0.69277    0.27193    0.24746   1.00
O2       0.72807    0.42083    0.24746   1.00
O2       0.57917    0.30723    0.24746   1.00
O2       0.73828    0.24638    0.22152   1.00
O2       0.78688    0.33796    0.18224   1.00
O2       0.64740    0.20747    0.18263   1.00
O2       0.75362    0.49189    0.22152   1.00
O2       0.79253    0.43994    0.18263   1.00
O2       0.66204    0.44893    0.18224   1.00
O2       0.50811    0.26172    0.22152   1.00
O2       0.55107    0.21312    0.18224   1.00
O2       0.56006    0.35260    0.18263   1.00
C1       0.72687    0.24723    0.23975   1.00
C1       0.75277    0.47963    0.23975   1.00
C1       0.52037    0.27313    0.23975   1.00
C1       0.81063    0.39997    0.17661   1.00
C1       0.58933    0.18937    0.17661   1.00
C1       0.60003    0.41067    0.17661   1.00
O1       0.66667    0.33333    0.70833   1.00
Zn1      0.66667    0.33333    0.73744   1.00
Zn1      0.71818    0.29046    0.69942   1.00
Zn1      0.57227    0.28182    0.69942   1.00
Zn1      0.70954    0.42773    0.69942   1.00
O2       0.72807    0.30723    0.74746   1.00
O2       0.57917    0.27193    0.74746   1.00
O2       0.69277    0.42083    0.74746   1.00
O2       0.75362    0.26172    0.72152   1.00
O2       0.66204    0.21312    0.68224   1.00
O2       0.79253    0.35260    0.68263   1.00
O2       0.50811    0.24638    0.72152   1.00
O2       0.56006    0.20747    0.68263   1.00
O2       0.55107    0.33796    0.68224   1.00
O2       0.73828    0.49189    0.72152   1.00
O2       0.78688    0.44893    0.68224   1.00
O2       0.64740    0.43994    0.68263   1.00
C1       0.75277    0.27313    0.73975   1.00
C1       0.52037    0.24723    0.73975   1.00
C1       0.72687    0.47963    0.73975   1.00
C1       0.60003    0.18937    0.67661   1.00
C1       0.81063    0.41067    0.67661   1.00
C1       0.58933    0.39997    0.67661   1.00
O1       0.66667    0.33333    0.45833   1.00
Zn1      0.66667    0.33333    0.42922   1.00
Zn1      -0.37621   0.38485    0.46725   1.00
Zn1      0.61515    0.23894    0.46725   1.00
Zn1      0.76106    0.37621    0.46725   1.00
O2       0.64057    0.39473    0.41920   1.00
O2       0.60527    0.24583    0.41920   1.00
O2       0.75417    0.35943    0.41920   1.00
O2       0.59506    0.42028    0.44514   1.00
O2       0.54645    0.32871    0.48443   1.00
O2       -0.31407   0.45920    0.48404   1.00
O2       0.57972    0.17477    0.44514   1.00
O2       0.54080    0.22673    0.48404   1.00
O2       0.67129    0.21774    0.48443   1.00
O2       0.82523    0.40494    0.44514   1.00
O2       -0.21774   0.45355    0.48443   1.00
O2       0.77327    0.31407    0.48404   1.00
C1       0.60647    0.41943    0.42691   1.00
C1       0.58057    0.18703    0.42691   1.00
C1       0.81297    0.39353    0.42691   1.00
C1       0.52270    0.26670    0.49006   1.00
C1       -0.25600   0.47730    0.49006   1.00
C1       0.73330    0.25600    0.49006   1.00
O1       0.33333    0.66667    0.29167   1.00
Zn1      0.33333    0.66667    0.26256   1.00
Zn1      0.28182    0.70954    0.30058   1.00
Zn1      0.42773    0.71818    0.30058   1.00
Zn1      0.29046    0.57227    0.30058   1.00
O2       0.27193    0.69277    0.25254   1.00
O2       0.42083    0.72807    0.25254   1.00
O2       0.30723    0.57917    0.25254   1.00
O2       0.24638    0.73828    0.27848   1.00
O2       0.33796    0.78688    0.31776   1.00
O2       0.20747    0.64740    0.31737   1.00
O2       0.49189    0.75362    0.27848   1.00
O2       0.43994    0.79253    0.31737   1.00
O2       0.44893    0.66204    0.31776   1.00
O2       0.26172    0.50811    0.27848   1.00
O2       0.21312    0.55107    0.31776   1.00
O2       0.35260    0.56006    0.31737   1.00
C1       0.24723    0.72687    0.26025   1.00
C1       0.47963    0.75277    0.26025   1.00
C1       0.27313    0.52037    0.26025   1.00
C1       0.39997    0.81063    0.32339   1.00
C1       0.18937    0.58933    0.32339   1.00
C1       0.41067    0.60003    0.32339   1.00
O1       0.33333    0.66667    0.54167   1.00
Zn1      0.33333    0.66667    0.57078   1.00
Zn1      0.37621    0.61515    0.53275   1.00
Zn1      0.38485    0.76106    0.53275   1.00
Zn1      0.23894    -0.37621   0.53275   1.00
O2       0.35943    0.60527    0.58080   1.00
O2       0.39473    0.75417    0.58080   1.00
O2       0.24583    0.64057    0.58080   1.00
O2       0.40494    0.57972    0.55486   1.00
O2       0.45355    0.67129    0.51557   1.00
O2       0.31407    0.54080    0.51596   1.00
O2       0.42028    0.82523    0.55486   1.00
O2       0.45920    0.77327    0.51596   1.00
O2       0.32871    -0.21774   0.51557   1.00
O2       0.17477    0.59506    0.55486   1.00
O2       0.21774    0.54645    0.51557   1.00
O2       0.22673    -0.31407   0.51596   1.00
C1       0.39353    0.58057    0.57309   1.00
C1       0.41943    0.81297    0.57309   1.00
C1       0.18703    0.60647    0.57309   1.00
C1       0.47730    0.73330    0.50994   1.00
C1       0.25600    0.52270    0.50994   1.00
C1       0.26670    -0.25600   0.50994   1.00
O1       0.33333    0.66667    0.04167   1.00
Zn1      0.33333    0.66667    0.07078   1.00
Zn1      0.38485    -0.37621   0.03275   1.00
Zn1      0.23894    0.61515    0.03275   1.00
Zn1      0.37621    0.76106    0.03275   1.00
O2       0.39473    0.64057    0.08080   1.00
O2       0.24583    0.60527    0.08080   1.00
O2       0.35943    0.75417    0.08080   1.00
O2       0.42028    0.59506    0.05486   1.00
O2       0.32871    0.54645    0.01557   1.00
O2       0.45920    -0.31407   0.01596   1.00
O2       0.17477    0.57972    0.05486   1.00
O2       0.22673    0.54080    0.01596   1.00
O2       0.21774    0.67129    0.01557   1.00
O2       0.40494    0.82523    0.05486   1.00
O2       0.45355    -0.21774   0.01557   1.00
O2       0.31407    0.77327    0.01596   1.00
C1       0.41943    0.60647    0.07309   1.00
C1       0.18703    0.58057    0.07309   1.00
C1       0.39353    0.81297    0.07309   1.00
C1       0.26670    0.52270    0.00994   1.00
C1       0.47730    -0.25600   0.00994   1.00
C1       0.25600    0.73330    0.00994   1.00
O1       0.33333    0.66667    0.79167   1.00
Zn1      0.33333    0.66667    0.76256   1.00
Zn1      0.29046    0.71818    0.80058   1.00
Zn1      0.28182    0.57227    0.80058   1.00
Zn1      0.42773    0.70954    0.80058   1.00
O2       0.30723    0.72807    0.75254   1.00
O2       0.27193    0.57917    0.75254   1.00
O2       0.42083    0.69277    0.75254   1.00
O2       0.26172    0.75362    0.77848   1.00
O2       0.21312    0.66204    0.81776   1.00
O2       0.35260    0.79253    0.81737   1.00
O2       0.24638    0.50811    0.77848   1.00
O2       0.20747    0.56006    0.81737   1.00
O2       0.33796    0.55107    0.81776   1.00
O2       0.49189    0.73828    0.77848   1.00
O2       0.44893    0.78688    0.81776   1.00
O2       0.43994    0.64740    0.81737   1.00
C1       0.27313    0.75277    0.76025   1.00
C1       0.24723    0.52037    0.76025   1.00
C1       0.47963    0.72687    0.76025   1.00
C1       0.18937    0.60003    0.82339   1.00
C1       0.41067    0.81063    0.82339   1.00
C1       0.39997    0.58933    0.82339   1.00
C5       0.09857    0.95247    0.54537   1.00
H2       0.06995    0.98011    0.54727   1.00
H2       0.10453    0.94921    0.52875   1.00
C5       0.16920    0.99329    0.55567   1.00
H2       0.20585    1.03514    0.54561   1.00
H2       0.18973    0.95891    0.55921   1.00
O_3      -0.08402   0.59820    0.55148   1.00
C4       -0.14057   0.68415    0.55227   1.00
C3c      -0.08817   0.74860    0.54609   1.00
H1       -0.06794   0.75544    0.53088   1.00
C3d      -0.16688   0.67656    0.57206   1.00
C3       -0.06044   0.80476    0.55941   1.00
O2       -0.01529   0.86788    0.55157   1.00
C3       -0.13849   0.73205    0.58549   1.00
H1       -0.15868   0.72319    0.60074   1.00
C2       -0.08498   0.79740    0.57956   1.00
C5       -0.10569   0.55220    0.56795   1.00
H2       -0.12871   0.49817    0.56287   1.00
H2       -0.14402   0.55686    0.57741   1.00
C5       -0.04342   0.56967    0.58083   1.00
H2       -0.01930   0.62421    0.58544   1.00
H2       -0.00579   0.56423    0.57129   1.00
C5       -0.06291   0.52343    0.59955   1.00
H2       -0.08746   0.46885    0.59507   1.00
H2       -0.09866   0.53057    0.60945   1.00
H2       -0.01655   0.53595    0.60855   1.00
C5       -0.28080   0.60054    0.57452   1.00
C5       0.05229    0.88121    0.55413   1.00
H2       -0.28822   0.59952    0.55782   1.00
H2       -0.29094   0.63984    0.58124   1.00
H2       0.05971    0.84261    0.54574   1.00
H2       0.06525    0.87929    0.57040   1.00
H2       0.16602    1.01816    0.56995   1.00
H2       -0.40513   0.49010    0.55788   1.00
H2       -0.42053   0.54170    0.57589   1.00
C2       -0.22168   0.50973    0.51323   1.00
C3       -0.24849   0.55416    0.51259   1.00
O2       -0.31062   0.53385    0.50350   1.00
C3       -0.16580   0.52624    0.52623   1.00
H1       -0.14299   0.49423    0.52668   1.00
C3a      -0.22044   0.61238    0.52517   1.00
H1       -0.24402   0.64375    0.52536   1.00
C3b      -0.13946   0.58297    0.53919   1.00
C4       -0.16683   0.62652    0.53877   1.00
O_3      -0.21481   0.61312    0.57938   1.00
C5       -0.30095   0.56360    0.48409   1.00
H2       -0.27227   0.62046    0.48502   1.00
C5       -0.37183   0.53963    0.47521   1.00
H2       -0.27245   0.54701    0.47400   1.00
H2       -0.39217   0.57101    0.48191   1.00
H2       -0.40586   0.48632    0.48047   1.00
C5       -0.37170   0.54341    0.45185   1.00
H2       -0.33352   0.59568    0.44682   1.00
H2       -0.42280   0.53113    0.44607   1.00
H2       -0.35973   0.50564    0.44484   1.00
C5       -0.33167   0.53101    0.58316   1.00
H2       -0.33241   0.53546    0.59997   1.00
H2       -0.31280   0.49508    0.57982   1.00
C5       -0.40355   0.50356    0.57423   1.00
H2       -0.44058   0.45647    0.58238   1.00
C5       0.12862    0.26615    0.57708   1.00
H2       0.08228    0.21886    0.57208   1.00
H2       0.14174    0.30320    0.56447   1.00
C5       0.11253    0.29342    0.59660   1.00
H2       0.08656    0.32279    0.59288   1.00
H2       0.16050    0.32709    0.60499   1.00
O_3      0.44178    0.28170    0.56603   1.00
C4       0.31554    0.17536    0.55215   1.00
C3c      0.26993    0.20022    0.55345   1.00
H1       0.27794    0.24288    0.54413   1.00
C3d      0.30362    0.11910    0.56422   1.00
C3       0.21412    0.17134    0.56690   1.00
O2       0.16715    0.19284    0.56554   1.00
C3       0.24885    0.09106    0.57790   1.00
H1       0.24315    0.04954    0.58736   1.00
C2       0.20267    0.11606    0.57956   1.00
C5       0.47732    0.25804    0.57804   1.00
H2       0.52978    0.27572    0.57222   1.00
H2       0.44954    0.20118    0.57869   1.00
C5       0.48282    0.28604    0.59932   1.00
H2       0.43050    0.26997    0.60492   1.00
H2       0.51119    0.34282    0.59851   1.00
C5       0.51884    0.26068    0.61363   1.00
H2       0.57095    0.27614    0.60805   1.00
H2       0.48931    0.20414    0.61499   1.00
H2       0.52372    0.28288    0.62900   1.00
C5       0.33377    0.04737    0.54913   1.00
C5       0.18399    0.24665    0.57939   1.00
H2       0.33782    0.07019    0.53389   1.00
H2       0.28127    0.00288    0.55096   1.00
H2       0.23502    0.29102    0.57563   1.00
H2       0.18619    0.23170    0.59543   1.00
H2       0.07697    0.25071    0.60672   1.00
H2       0.40561    0.01906    0.51788   1.00
H2       0.33207    -0.05760   0.52757   1.00
C2       0.49040    0.26581    0.51325   1.00
C3       0.42674    0.21506    0.50565   1.00
O2       0.42309    0.18214    0.48768   1.00
C3       0.49382    0.28793    0.53351   1.00
H1       0.54141    0.32793    0.53962   1.00
C3a      0.36902    0.18661    0.51844   1.00
H1       0.32155    0.14510    0.51275   1.00
C3b      0.43683    0.25800    0.54638   1.00
C4       0.37381    0.20683    0.53890   1.00
O_3      0.34981    0.09600    0.56464   1.00
C5       0.40137    0.20864    0.47182   1.00
H2       0.35006    0.20216    0.47507   1.00
C5       0.39753    0.16891    0.45261   1.00
H2       0.43822    0.26389    0.46943   1.00
H2       0.34909    0.11906    0.45295   1.00
H2       0.43975    0.15718    0.45337   1.00
C5       0.40237    0.20808    0.43297   1.00
H2       0.36328    0.22405    0.43321   1.00
H2       0.39365    0.17544    0.41940   1.00
H2       0.45414    0.25399    0.43115   1.00
C5       0.38496    0.02257    0.55042   1.00
H2       0.37297    -0.01039   0.56409   1.00
H2       0.43658    0.06768    0.55284   1.00
C5       0.38463    -0.01604   0.53116   1.00
H2       0.41715    -0.03940   0.53347   1.00
C5       0.75695    0.04025    0.63469   1.00
H2       0.75001    -0.01078   0.63116   1.00
H2       0.70507    0.03399    0.63441   1.00
C5       0.78900    0.06286    0.65602   1.00
H2       0.74938    0.03901    0.66804   1.00
H2       0.81438    0.11933    0.65742   1.00
O_3      0.85683    0.27626    0.55609   1.00
C4       0.82383    0.13933    0.55215   1.00
C3c      0.79231    0.10748    0.57046   1.00
H1       0.74415    0.10321    0.57462   1.00
C3d      0.88608    0.14349    0.54686   1.00
C3       0.82258    0.08161    0.58377   1.00
O2       0.78492    0.04387    0.60014   1.00
C3       0.91700    0.11895    0.56026   1.00
H1       0.96591    0.12544    0.55590   1.00
C2       0.88618    0.08726    0.57895   1.00
C5       0.92090    0.32229    0.54759   1.00
H2       0.91743    0.35691    0.53623   1.00
H2       0.94399    0.29457    0.54001   1.00
C5       0.96721    0.36534    0.56475   1.00
H2       0.96915    0.33064    0.57638   1.00
H2       0.94399    0.39327    0.57208   1.00
C5       1.03900    0.41538    0.55691   1.00
H2       1.03739    0.44988    0.54519   1.00
H2       1.06315    0.38748    0.55022   1.00
H2       1.07168    0.44742    0.56959   1.00
C5       0.89927    0.13461    0.51290   1.00
C5       0.79991    0.08659    0.61728   1.00
H2       0.84431    0.11506    0.50977   1.00
H2       0.90731    0.09031    0.51522   1.00
H2       0.78581    0.12648    0.61428   1.00
H2       0.85529    0.11340    0.62134   1.00
H2       0.82710    0.04623    0.65902   1.00
H2       0.85956    0.13734    0.47143   1.00
H2       0.89954    0.08553    0.47472   1.00
C2       0.73819    0.22577    0.51214   1.00
C3       0.71814    0.15604    0.51058   1.00
O2       0.68501    0.11946    0.49345   1.00
C3       0.78415    0.26477    0.52775   1.00
H1       0.79912    0.31784    0.52968   1.00
C3a      0.74542    0.12757    0.52412   1.00
H1       0.73259    0.07513    0.52200   1.00
C3b      0.81286    0.23686    0.54077   1.00
C4       0.79369    0.16781    0.53901   1.00
O_3      0.92169    0.17886    0.52978   1.00
C5       0.61452    0.07849    0.49726   1.00
H2       0.60457    0.04177    0.50988   1.00
C5       0.58179    0.03891    0.47775   1.00
H2       0.59150    0.11044    0.50128   1.00
H2       0.59058    -0.00520   0.47689   1.00
H2       0.60984    0.07292    0.46476   1.00
C5       0.50498    0.01450    0.47633   1.00
H2       0.47867    -0.01484   0.49018   1.00
H2       0.48188    -0.01882   0.46283   1.00
H2       0.49582    0.05839    0.47457   1.00
C5       0.94061    0.17528    0.49461   1.00
H2       0.99358    0.18467    0.49623   1.00
H2       0.94389    0.22603    0.49492   1.00
C5       0.90865    0.13858    0.47450   1.00
H2       0.94365    0.16605    0.46169   1.00
C5       0.70261    -0.10369   0.86060   1.00
H2       0.73939    -0.04807   0.86126   1.00
H2       0.65147    -0.10877   0.85888   1.00
C5       0.71905    -0.13491   0.84206   1.00
H2       0.69733    -0.12652   0.82793   1.00
H2       0.69752    -0.19067   0.84434   1.00
O_3      0.60108    -0.28142   0.95188   1.00
C4       0.68440    -0.13923   0.94781   1.00
C3c      0.67886    -0.12460   0.92743   1.00
H1       0.63029    -0.13395   0.92162   1.00
C3d      0.74838    -0.12575   0.95516   1.00
C3       0.73521    -0.09874   0.91421   1.00
O2       0.72801    -0.07789   0.89522   1.00
C3       0.80428    -0.10124   0.94194   1.00
H1       0.85172    -0.09397   0.94808   1.00
C2       0.79939    -0.08686   0.92123   1.00
C5       0.63031    -0.31036   0.96450   1.00
H2       0.59565    -0.34074   0.97713   1.00
H2       0.67926    -0.27013   0.97122   1.00
C5       0.64421    -0.35746   0.95149   1.00
H2       0.67729    -0.32752   0.93854   1.00
H2       0.59492    -0.39776   0.94501   1.00
C5       0.67841    -0.38936   0.96392   1.00
H2       0.64587    -0.41893   0.97695   1.00
H2       0.72873    -0.34928   0.96980   1.00
H2       0.68680    -0.42476   0.95426   1.00
C5       0.76859    -0.09034   0.98811   1.00
C5       0.70804    -0.13185   0.88120   1.00
H2       0.72552    -0.07993   0.98839   1.00
H2       0.81616    -0.04242   0.98391   1.00
H2       0.65767    -0.17597   0.88564   1.00
H2       0.74527    -0.15059   0.88039   1.00
H2       0.77530    -0.11024   0.83956   1.00
H2       0.72054    -0.07458   1.02720   1.00
H2       0.80956    -0.01187   1.02273   1.00
C2       0.51325    -0.22506   0.98817   1.00
C3       0.55217    -0.15370   0.98556   1.00
O2       0.54699    -0.11053   0.99929   1.00
C3       0.53022    -0.26684   0.97646   1.00
H1       0.50034    -0.32170   0.97771   1.00
C3a      0.60754    -0.12590   0.97188   1.00
H1       0.63920    -0.07108   0.97091   1.00
C3b      0.58664    -0.23895   0.96335   1.00
C4       0.62592    -0.16798   0.96101   1.00
O_3      0.75537    -0.14406   0.97466   1.00
C5       0.50607    -0.08537   0.99127   1.00
H2       0.52799    -0.05669   0.97687   1.00
C5       0.50382    -0.03728   1.00718   1.00
H2       0.45330    -0.12773   0.98822   1.00
H2       0.55187    0.01274    1.00610   1.00
H2       0.50398    -0.05862   1.02239   1.00
C5       0.44126    -0.02786   1.00485   1.00
H2       0.43896    -0.01172   0.98909   1.00
H2       0.44438    0.01168    1.01554   1.00
H2       0.39285    -0.07597   1.00844   1.00
C5       0.77713    -0.11219   1.00923   1.00
H2       0.82681    -0.11113   1.00984   1.00
H2       0.73643    -0.16619   1.01156   1.00
C5       0.77317    -0.06663   1.02588   1.00
H2       0.78665    -0.07945   1.04081   1.00
C5       0.26846    0.13146    0.92183   1.00
H2       0.22175    0.08475    0.92696   1.00
H2       0.30618    0.14503    0.93427   1.00
C5       0.29522    0.11593    0.90211   1.00
H2       0.32539    0.09061    0.90558   1.00
H2       0.32800    0.16405    0.89367   1.00
O_3      0.27991    0.44243    0.93375   1.00
C4       0.17537    0.31553    0.94785   1.00
C3c      0.20104    0.27065    0.94627   1.00
H1       0.24435    0.27924    0.95537   1.00
C3d      0.11828    0.30286    0.93608   1.00
C3       0.17214    0.21485    0.93282   1.00
O2       0.19458    0.16857    0.93391   1.00
C3       0.09021    0.24810    0.92239   1.00
H1       0.04801    0.24183    0.91315   1.00
C2       0.11601    0.20266    0.92044   1.00
C5       0.25495    0.47736    0.92199   1.00
H2       0.27225    0.52967    0.92786   1.00
H2       0.19806    0.44893    0.92158   1.00
C5       0.28205    0.48326    0.90056   1.00
H2       0.26638    0.43110    0.89489   1.00
H2       0.33885    0.51228    0.90112   1.00
C5       0.25526    0.51863    0.88651   1.00
H2       0.27032    0.57057    0.89215   1.00
H2       0.19868    0.48847    0.88538   1.00
H2       0.27680    0.52383    0.87103   1.00
C5       0.04630    0.33167    0.95167   1.00
C5       0.24786    0.18611    0.91980   1.00
H2       0.06996    0.33602    0.96678   1.00
H2       0.00219    0.27890    0.94993   1.00
H2       0.29197    0.23742    0.92347   1.00
H2       0.23198    0.18809    0.90386   1.00
H2       0.25224    0.08001    0.89213   1.00
H2       0.01821    0.40250    0.98329   1.00
H2       -0.05838   0.32837    0.97382   1.00
C2       0.26572    0.49039    0.98676   1.00
C3       0.21593    0.42643    0.99446   1.00
O2       0.18369    0.42228    1.01260   1.00
C3       0.28697    0.49414    0.96638   1.00
H1       0.32625    0.54197    0.96019   1.00
C3a      0.18752    0.36874    0.98166   1.00
H1       0.14670    0.32099    0.98744   1.00
C3b      0.25707    0.43714    0.95352   1.00
C4       0.20683    0.37382    0.96110   1.00
O_3      0.09430    0.34834    0.93593   1.00
C5       0.21149    0.40113    1.02824   1.00
H2       0.20558    0.35011    1.02487   1.00
C5       0.17245    0.39668    1.04767   1.00
H2       0.26670    0.43853    1.03043   1.00
H2       0.12295    0.34786    1.04746   1.00
H2       0.15996    0.43840    1.04710   1.00
C5       0.21279    0.40207    1.06709   1.00
H2       0.22946    0.36352    1.06664   1.00
H2       0.18070    0.39290    1.08082   1.00
H2       0.25834    0.45413    1.06881   1.00
C5       0.02048    0.38209    0.95068   1.00
H2       -0.01321   0.36971    0.93717   1.00
H2       0.06503    0.43401    0.94816   1.00
C5       -0.01747   0.38116    0.97016   1.00
H2       -0.04161   0.41307    0.96808   1.00
C5       0.04074    0.75728    0.86525   1.00
H2       -0.01034   0.75024    0.86877   1.00
H2       0.03457    0.70544    0.86552   1.00
C5       0.06343    0.78946    0.84394   1.00
H2       0.03970    0.74990    0.83190   1.00
H2       0.11991    0.81492    0.84257   1.00
O_3      0.27634    0.85705    0.94397   1.00
C4       0.13933    0.82383    0.94785   1.00
C3c      0.10761    0.79238    0.92952   1.00
H1       0.10344    0.74428    0.92534   1.00
C3d      0.14335    0.88601    0.95316   1.00
C3       0.08174    0.82266    0.91621   1.00
O2       0.04413    0.78505    0.89981   1.00
C3       0.11882    0.91692    0.93976   1.00
H1       0.12521    0.96578    0.94414   1.00
C2       0.08726    0.88619    0.92106   1.00
C5       0.32226    0.92110    0.95250   1.00
H2       0.35685    0.91763    0.96387   1.00
H2       0.29443    0.94408    0.96008   1.00
C5       0.36536    0.96754    0.93537   1.00
H2       0.33069    0.96949    0.92373   1.00
H2       0.39339    0.94443    0.92804   1.00
C5       0.41527    1.03932    0.94325   1.00
H2       0.44974    1.03770    0.95498   1.00
H2       0.38727    1.06336    0.94994   1.00
H2       0.44736    1.07209    0.93059   1.00
C5       0.13426    0.89899    0.98712   1.00
C5       0.08695    0.80019    0.88269   1.00
H2       0.11476    0.84402    0.99023   1.00
H2       0.08992    0.90695    0.98479   1.00
H2       0.12688    0.78616    0.88570   1.00
H2       0.11371    0.85559    0.87866   1.00
H2       0.04674    0.82752    0.84094   1.00
H2       0.13682    0.85909    1.02858   1.00
H2       0.08492    0.89896    1.02529   1.00
C2       0.22577    0.73819    0.98786   1.00
C3       0.15600    0.71803    0.98939   1.00
O2       0.11935    0.68477    1.00650   1.00
C3       0.26481    0.78426    0.97228   1.00
H1       0.31791    0.79933    0.97037   1.00
C3a      0.12754    0.74531    0.97585   1.00
H1       0.07506    0.73239    0.97795   1.00
C3b      0.23690    0.81297    0.95926   1.00
C4       0.16781    0.79369    0.96099   1.00
O_3      0.17860    0.92155    0.97027   1.00
C5       0.07849    0.61429    1.00266   1.00
H2       0.04183    0.60436    0.99002   1.00
C5       0.03882    0.58142    1.02214   1.00
H2       0.11053    0.59137    0.99864   1.00
H2       -0.00535   0.59013    1.02299   1.00
H2       0.07274    0.60943    1.03516   1.00
C5       0.01451    0.50462    1.02353   1.00
H2       -0.01473   0.47836    1.00966   1.00
H2       -0.01887   0.48141    1.03701   1.00
H2       0.05845    0.49554    1.02530   1.00
C5       0.17479    0.94025    1.00544   1.00
H2       0.18411    0.99320    1.00384   1.00
H2       0.22558    0.94362    1.00515   1.00
C5       0.13800    0.90815    1.02553   1.00
H2       0.16536    0.94310    1.03835   1.00
C5       -0.01895   0.02625    0.46374   1.00
H2       -0.06179   0.01771    0.45366   1.00
H2       -0.03438   0.03204    0.47928   1.00
C5       -0.00856   -0.03624   0.46272   1.00
H2       -0.04564   -0.07797   0.47273   1.00
H2       0.04416    -0.02144   0.46756   1.00
O_3      0.26128    0.35441    0.46881   1.00
C4       0.13947    0.31614    0.44761   1.00
C3c      0.09252    0.25023    0.45441   1.00
H1       0.07633    0.24231    0.47008   1.00
C3d      0.15917    0.32551    0.42706   1.00
C3       0.06655    0.19360    0.44129   1.00
O2       0.01470    0.13228    0.44836   1.00
C3       0.13440    0.26904    0.41405   1.00
H1       0.15281    0.27838    0.39859   1.00
C2       0.08746    0.20193    0.42073   1.00
C5       0.31980    0.39056    0.45656   1.00
H2       0.35720    0.44074    0.46329   1.00
H2       0.30592    0.39986    0.44112   1.00
C5       0.35366    0.34739    0.45468   1.00
H2       0.31569    0.29655    0.44849   1.00
H2       0.36786    0.33897    0.47016   1.00
C5       0.41667    0.38199    0.44094   1.00
H2       0.45460    0.43299    0.44696   1.00
H2       0.40220    0.38827    0.42529   1.00
H2       0.44159    0.35041    0.44011   1.00
C5       0.17869    0.42676    0.41380   1.00
C5       0.04211    0.09355    0.45668   1.00
H2       0.15324    0.43657    0.42673   1.00
H2       0.14038    0.40041    0.40153   1.00
H2       0.07592    0.12113    0.46979   1.00
H2       0.07323    0.08369    0.44545   1.00
H2       -0.01756   -0.05786   0.44704   1.00
H2       0.20322    0.56388    0.41901   1.00
H2       0.16403    0.52687    0.39475   1.00
C2       0.22612    0.48909    0.48728   1.00
C3       0.16312    0.46866    0.47764   1.00
O2       0.13742    0.51246    0.47668   1.00
C3       0.25754    0.44923    0.48427   1.00
H1       0.30489    0.46249    0.49185   1.00
C3a      0.13415    0.41069    0.46495   1.00
H1       0.08790    0.39799    0.45677   1.00
C3b      0.22970    0.39290    0.47114   1.00
C4       0.16761    0.37327    0.46132   1.00
O_3      0.20909    0.38841    0.41997   1.00
C5       0.08541    0.49403    0.49123   1.00
H2       0.04263    0.44094    0.48869   1.00
C5       0.05892    0.54403    0.48897   1.00
H2       0.10553    0.49762    0.50689   1.00
H2       0.02322    0.52764    0.47585   1.00
H2       0.10321    0.59459    0.48489   1.00
C5       0.02373    0.54962    0.50832   1.00
H2       -0.01680   0.49798    0.51308   1.00
H2       0.00019    0.58186    0.50555   1.00
H2       0.06107    0.57421    0.52098   1.00
C5       0.23518    0.49478    0.40579   1.00
H2       0.25256    0.48589    0.39089   1.00
H2       0.27939    0.51386    0.41635   1.00
C5       0.21177    0.54772    0.40381   1.00
H2       0.25164    0.59405    0.39599   1.00
C5       0.74968    0.71570    0.37718   1.00
H2       0.75526    0.75692    0.36685   1.00
H2       0.69692    0.67275    0.37489   1.00
C5       0.80221    0.69387    0.37136   1.00
H2       0.78357    0.65785    0.35831   1.00
H2       0.81153    0.66874    0.38450   1.00
O_3      0.67717    0.73603    0.47868   1.00
C4       0.68392    0.82456    0.44764   1.00
C3c      0.68431    0.79296    0.42935   1.00
H1       0.64032    0.74493    0.42515   1.00
C3d      0.74137    0.88761    0.45270   1.00
C3       0.74141    0.82203    0.41639   1.00
O2       0.73493    0.79256    0.39766   1.00
C3       0.79881    0.91604    0.44001   1.00
H1       0.84260    0.96325    0.44487   1.00
C2       0.80035    0.88439    0.42157   1.00
C5       0.71838    0.77114    0.49552   1.00
H2       0.68892    0.75688    0.50998   1.00
H2       0.74261    0.82746    0.49353   1.00
C5       0.77381    0.75221    0.49713   1.00
H2       0.80203    0.76469    0.48248   1.00
H2       0.74907    0.69598    0.49930   1.00
C5       0.82260    0.79021    0.51470   1.00
H2       0.79468    0.77836    0.52937   1.00
H2       0.84911    0.84630    0.51220   1.00
H2       0.86185    0.77460    0.51592   1.00
C5       0.71605    0.96006    0.46960   1.00
C5       0.75753    0.74463    0.39863   1.00
H2       0.66101    0.92964    0.46567   1.00
H2       0.74236    1.00064    0.45792   1.00
H2       0.72549    0.70309    0.40953   1.00
H2       0.81171    0.76799    0.40379   1.00
H2       0.85161    0.73864    0.36644   1.00
H2       0.62188    0.98503    0.49245   1.00
H2       0.68550    1.06022    0.47903   1.00
C2       0.51498    0.73499    0.48878   1.00
C3       0.51556    0.77634    0.47266   1.00
O2       0.47182    0.80220    0.47282   1.00
C3       0.56947    0.72150    0.49028   1.00
H1       0.56966    0.68862    0.50213   1.00
C3a      0.57068    0.80440    0.45890   1.00
H1       0.57229    0.83908    0.44735   1.00
C3b      0.62527    0.75125    0.47696   1.00
C4       0.62629    0.79319    0.46114   1.00
O_3      0.74560    0.91822    0.47122   1.00
C5       0.41633    0.76418    0.45966   1.00
H2       0.43397    0.76564    0.44375   1.00
C5       0.37108    0.79660    0.46042   1.00
H2       0.38632    0.70995    0.46463   1.00
H2       0.39418    0.84267    0.45055   1.00
H2       0.37292    0.81489    0.47622   1.00
C5       0.29685    0.74708    0.45398   1.00
H2       0.29634    0.72521    0.43885   1.00
H2       0.26708    0.77399    0.45308   1.00
H2       0.27019    0.70492    0.46524   1.00
C5       0.72300    0.99352    0.49016   1.00
H2       0.77751    1.03283    0.49247   1.00
H2       0.70968    0.95412    0.50214   1.00
C5       0.67685    1.02520    0.49195   1.00
H2       0.68844    1.05514    0.50622   1.00
C5       0.23619    0.13733    0.43440   1.00
H2       0.24512    0.13676    0.41786   1.00
H2       0.28739    0.16135    0.44159   1.00
C5       0.20162    0.18026    0.43856   1.00
H2       0.24001    0.23567    0.43883   1.00
H2       0.17462    0.16555    0.45341   1.00
O_3      0.13873    -0.16105   0.48873   1.00
C4       0.17621    -0.14017   0.44752   1.00
C3c      0.20623    -0.06967   0.44425   1.00
H1       0.25321    -0.03499   0.45192   1.00
C3d      0.11550    -0.18455   0.43716   1.00
C3       0.17592    -0.04275   0.43135   1.00
O2       0.21239    0.02582    0.42697   1.00
C3       0.08451    -0.15783   0.42461   1.00
H1       0.03673    -0.19370   0.41754   1.00
C2       0.11379    -0.08663   0.42130   1.00
C5       0.07517    -0.22054   0.49200   1.00
H2       0.07865    -0.25540   0.50326   1.00
H2       0.05427    -0.24936   0.47758   1.00
C5       0.02635    -0.19855   0.50014   1.00
H2       0.02434    -0.16220   0.48916   1.00
H2       0.04740    -0.17039   0.51463   1.00
C5       -0.04500   -0.26024   0.50345   1.00
H2       -0.04330   -0.29698   0.51429   1.00
H2       -0.06703   -0.28702   0.48887   1.00
H2       -0.07956   -0.24331   0.50982   1.00
C5       0.10657    -0.28600   0.42820   1.00
C5       0.19434    0.06230    0.44064   1.00
H2       0.16156    -0.26701   0.43111   1.00
H2       0.09993    -0.27773   0.41187   1.00
H2       0.20717    0.05543    0.45649   1.00
H2       0.13860    0.04487    0.44023   1.00
H2       0.16443    0.17315    0.42633   1.00
H2       0.15003    -0.38565   0.43196   1.00
H2       0.11217    -0.38852   0.40740   1.00
C2       0.26177    -0.22462   0.48830   1.00
C3       0.28399    -0.21121   0.46795   1.00
O2       0.31965    -0.24001   0.45965   1.00
C3       0.21360    -0.20640   0.49496   1.00
H1       0.19688    -0.21437   0.51058   1.00
C3a      0.25668    -0.18194   0.45473   1.00
H1       0.27129    -0.17559   0.43892   1.00
C3b      0.18492    -0.17932   0.48161   1.00
C4       0.20628    -0.16699   0.46131   1.00
O_3      0.08121    -0.25390   0.44103   1.00
C5       0.38985    -0.19150   0.45878   1.00
H2       0.39948    -0.14655   0.44936   1.00
C5       0.42547    -0.22687   0.44913   1.00
H2       0.41093    -0.17333   0.47426   1.00
H2       0.41842    -0.22799   0.43239   1.00
H2       0.39820    -0.28093   0.45432   1.00
C5       0.50189    -0.19229   0.45450   1.00
H2       0.52720    -0.13716   0.45068   1.00
H2       0.52718    -0.21581   0.44588   1.00
H2       0.50959    -0.19841   0.47096   1.00
C5       0.06661    -0.36209   0.43272   1.00
H2       0.01409    -0.38320   0.42654   1.00
H2       0.06163    -0.36894   0.44948   1.00
C5       0.10144    -0.39987   0.42385   1.00
H2       0.06754    -0.45582   0.42557   1.00
C5       0.28900    0.06001    0.13666   1.00
H2       0.26941    0.09390    0.14161   1.00
H2       0.34463    0.08844    0.13984   1.00
C5       0.25372    -0.00699   0.14905   1.00
H2       0.27840    0.00005    0.16415   1.00
H2       0.25663    -0.04818   0.14070   1.00
O_3      0.35515    0.05338    0.03384   1.00
C4       0.31586    0.14058    0.05227   1.00
C3c      0.32320    0.13533    0.07324   1.00
H1       0.37327    0.15247    0.07954   1.00
C3d      0.25030    0.11885    0.04440   1.00
C3       0.26640    0.10718    0.08632   1.00
O2       0.27842    0.11136    0.10688   1.00
C3       0.19349    0.08960    0.05733   1.00
H1       0.14396    0.07144    0.05051   1.00
C2       0.19991    0.08322    0.07854   1.00
C5       0.31347    0.01747    0.01716   1.00
H2       0.34372    0.02488    0.00309   1.00
H2       0.27538    0.03385    0.01399   1.00
C5       0.27606    -0.05789   0.02251   1.00
H2       0.24736    -0.06504   0.03688   1.00
H2       0.31456    -0.07382   0.02546   1.00
C5       0.22754    -0.10063   0.00540   1.00
H2       0.25580    -0.09336   -0.00903   1.00
H2       0.18765    -0.08639   0.00292   1.00
H2       0.20179    -0.15568   0.00939   1.00
C5       0.24900    0.18199    0.01763   1.00
C5       0.27649    0.05128    0.11376   1.00
H2       0.30205    0.22357    0.02060   1.00
H2       0.21299    0.19429    0.02560   1.00
H2       0.31725    0.04527    0.10618   1.00
H2       0.22665    0.00433    0.11046   1.00
H2       0.19906    -0.02337   0.15208   1.00
H2       0.31882    0.27965    -0.01436   1.00
H2       0.24157    0.27820    -0.00605   1.00
C2       0.48550    0.21855    0.01142   1.00
C3       0.46894    0.26365    0.02133   1.00
O2       0.49506    0.32960    0.01443   1.00
C3       0.44702    0.14824    0.01612   1.00
H1       0.45953    0.11262    0.00920   1.00
C3a      0.41392    0.23772    0.03512   1.00
H1       0.39944    0.27239    0.04169   1.00
C3b      0.39098    0.12235    0.02934   1.00
C4       0.37392    0.16711    0.03894   1.00
O_3      0.23966    0.11813    0.02371   1.00
C5       0.54957    0.37527    0.02688   1.00
H2       0.53270    0.37285    0.04293   1.00
C5       0.57482    0.44699    0.01848   1.00
H2       0.59200    0.36374    0.02656   1.00
H2       0.53982    0.46495    0.02381   1.00
H2       0.56973    0.44267    0.00166   1.00
C5       0.64899    0.49805    0.02459   1.00
H2       0.65433    0.49771    0.04134   1.00
H2       0.66355    0.55065    0.01967   1.00
H2       0.68574    0.48541    0.01719   1.00
C5       0.23557    0.17838    -0.00508   1.00
H2       0.17977    0.14540    -0.00769   1.00
H2       0.26096    0.15258    -0.01241   1.00
C5       0.26194    0.24955    -0.01443   1.00
H2       0.24504    0.24456    -0.03047   1.00
C5       0.73113    0.73297    0.12890   1.00
H2       0.77772    0.74333    0.13737   1.00
H2       0.69327    0.67851    0.13176   1.00
C5       0.70446    0.77941    0.13705   1.00
H2       0.67415    0.75777    0.15116   1.00
H2       0.67184    0.78488    0.12544   1.00
O_3      0.72043    0.66652    0.02548   1.00
C4       0.82463    0.68399    0.05233   1.00
C3c      0.79881    0.68073    0.07192   1.00
H1       0.75538    0.63386    0.07714   1.00
C3d      0.88186    0.74525    0.04592   1.00
C3       0.82771    0.73774    0.08492   1.00
O2       0.80511    0.72833    0.10467   1.00
C3       0.90994    0.80249    0.05868   1.00
H1       0.95227    0.84906    0.05284   1.00
C2       0.88400    0.80029    0.07846   1.00
C5       0.74562    0.70906    0.00826   1.00
H2       0.72839    0.67964    -0.00619   1.00
H2       0.80251    0.73857    0.00826   1.00
C5       0.71870    0.75847    0.00899   1.00
H2       0.73429    0.78652    0.02367   1.00
H2       0.66189    0.72849    0.00878   1.00
C5       0.74574    0.80843    -0.00890   1.00
H2       0.73076    0.78074    -0.02361   1.00
H2       0.80233    0.84004    -0.00831   1.00
H2       0.72433    0.84315    -0.00835   1.00
C5       0.95389    0.73025    0.02516   1.00
C5       0.75193    0.74356    0.10651   1.00
H2       0.93007    0.67521    0.02902   1.00
H2       0.99793    0.75990    0.03555   1.00
H2       0.70786    0.70845    0.09679   1.00
H2       0.76797    0.79692    0.10175   1.00
H2       0.74748    0.83104    0.14116   1.00
H2       0.98193    0.64511    -0.00111   1.00
H2       1.05851    0.71383    0.01039   1.00
C2       0.73429    0.51488    0.01127   1.00
C3       0.78391    0.52066    0.02534   1.00
O2       0.81602    0.48299    0.02285   1.00
C3       0.71321    0.56408    0.01183   1.00
H1       0.67406    0.56010    0.00162   1.00
C3a      0.81231    0.57570    0.03913   1.00
H1       0.85300    0.58158    0.04902   1.00
C3b      0.74311    0.61995    0.02512   1.00
C4       0.79317    0.62621    0.03889   1.00
O_3      0.90601    0.75271    0.02626   1.00
C5       0.78798    0.42672    0.03618   1.00
H2       0.79378    0.44355    0.05234   1.00
C5       0.82689    0.38843    0.03275   1.00
H2       0.73277    0.39203    0.03298   1.00
H2       0.87632    0.41572    0.04100   1.00
H2       0.83952    0.39217    0.01629   1.00
C5       0.78633    0.31318    0.03946   1.00
H2       0.76953    0.31021    0.05545   1.00
H2       0.81832    0.28868    0.03833   1.00
H2       0.74085    0.28301    0.02956   1.00
C5       0.97989    0.74057    0.00342   1.00
H2       1.01372    0.79621    0.00075   1.00
H2       0.93545    0.72317    -0.00697   1.00
C5       1.01773    0.70133    -0.00103   1.00
H2       1.04200    0.71562    -0.01624   1.00
C5       0.13729    0.23597    0.06553   1.00
H2       0.13679    0.24497    0.08207   1.00
H2       0.16133    0.28714    0.05833   1.00
C5       0.18015    0.20131    0.06136   1.00
H2       0.23556    0.23967    0.06108   1.00
H2       0.16536    0.17427    0.04653   1.00
O_3      -0.16123   0.13859    0.01128   1.00
C4       -0.14017   0.17621    0.05248   1.00
C3c      -0.06966   0.20618    0.05573   1.00
H1       -0.03498   0.25313    0.04804   1.00
C3d      -0.18455   0.11555    0.06286   1.00
C3       -0.04274   0.17587    0.06863   1.00
O2       0.02585    0.21230    0.07298   1.00
C3       -0.15784   0.08456    0.07541   1.00
H1       -0.19372   0.03681    0.08249   1.00
C2       -0.08663   0.11379    0.07870   1.00
C5       -0.22076   0.07505    0.00804   1.00
H2       -0.25564   0.07853    -0.00322   1.00
H2       -0.24954   0.05422    0.02247   1.00
C5       -0.19886   0.02615    -0.00010   1.00
H2       -0.16250   0.02414    0.01088   1.00
H2       -0.17074   0.04714    -0.01460   1.00
C5       -0.26061   -0.04518   -0.00338   1.00
H2       -0.29737   -0.04347   -0.01422   1.00
H2       -0.28734   -0.06715   0.01121   1.00
H2       -0.24375   -0.07980   -0.00975   1.00
C5       -0.28593   0.10676    0.07184   1.00
C5       0.06224    0.19416    0.05931   1.00
H2       -0.26690   0.16175    0.06892   1.00
H2       -0.27761   0.10016    0.08818   1.00
H2       0.05533    0.20694    0.04346   1.00
H2       0.04476    0.13840    0.05974   1.00
H2       0.17304    0.16416    0.07361   1.00
H2       -0.38549   0.15034    0.06810   1.00
H2       -0.38831   0.11254    0.09266   1.00
C2       -0.22463   0.26176    0.01170   1.00
C3       -0.21113   0.28406    0.03204   1.00
O2       -0.23984   0.31980    0.04035   1.00
C3       -0.20649   0.21353    0.00505   1.00
H1       -0.21453   0.19676    -0.01057   1.00
C3a      -0.18185   0.25674    0.04527   1.00
H1       -0.17543   0.27141    0.06107   1.00
C3b      -0.17941   0.18485    0.01839   1.00
C4       -0.16699   0.20628    0.03869   1.00
O_3      -0.25392   0.08130    0.05901   1.00
C5       -0.19128   0.38998    0.04119   1.00
H2       -0.14632   0.39960    0.05060   1.00
C5       -0.22656   0.42569    0.05084   1.00
H2       -0.17315   0.41100    0.02570   1.00
H2       -0.22763   0.41870    0.06758   1.00
H2       -0.28063   0.39845    0.04567   1.00
C5       -0.19193   0.50210    0.04545   1.00
H2       -0.13680   0.52738    0.04925   1.00
H2       -0.21538   0.52746    0.05406   1.00
H2       -0.19810   0.50975    0.02899   1.00
C5       -0.36204   0.06684    0.06735   1.00
H2       -0.38317   0.01434    0.07355   1.00
H2       -0.36895   0.06181    0.05059   1.00
C5       -0.39973   0.10176    0.07622   1.00
H2       -0.45569   0.06790    0.07452   1.00
C5       0.65787    1.30694    0.86932   1.00
H2       0.62174    1.31508    0.87866   1.00
H2       0.63912    1.30098    0.85347   1.00
C5       0.73025    1.36985    0.87113   1.00
H2       0.73613    1.41142    0.86083   1.00
H2       0.76921    1.35551    0.86716   1.00
O_3      0.61364    0.97997    0.86649   1.00
C4       0.52604    1.01718    0.88571   1.00
C3c      0.54554    1.08295    0.87865   1.00
H1       0.53968    1.09076    0.86277   1.00
C3d      0.53318    1.00795    0.90652   1.00
C3       0.57366    1.13959    0.89179   1.00
O2       0.58374    1.20071    0.88432   1.00
C3       0.56237    1.06444    0.91957   1.00
H1       0.56908    1.05523    0.93526   1.00
C2       0.58306    1.13142    0.91264   1.00
C5       0.63445    0.94422    0.87949   1.00
H2       0.62318    0.89417    0.87301   1.00
H2       0.60879    0.93472    0.89455   1.00
C5       0.71104    0.98794    0.88241   1.00
H2       0.72249    1.03865    0.88835   1.00
H2       0.73616    0.99656    0.86731   1.00
C5       0.73767    0.95380    0.89700   1.00
H2       0.72599    0.90292    0.89123   1.00
H2       0.71438    0.94732    0.91229   1.00
H2       0.79393    0.98578    0.89860   1.00
C5       0.44998    0.90638    0.91917   1.00
C5       0.65109    1.23992    0.87691   1.00
H2       0.41677    0.89628    0.90568   1.00
H2       0.43575    0.93246    0.93095   1.00
H2       0.65970    1.21255    0.86419   1.00
H2       0.69031    1.25013    0.88880   1.00
H2       0.74019    1.39147    0.88682   1.00
H2       0.33912    0.76883    0.91314   1.00
H2       0.33267    0.80560    0.93697   1.00
C2       0.44743    0.84428    0.84612   1.00
C3       0.40297    0.86416    0.85474   1.00
O2       0.33348    0.81989    0.85480   1.00
C3       0.51810    0.88465    0.85009   1.00
H1       0.55366    0.87181    0.84329   1.00
C3a      0.42948    0.92212    0.86741   1.00
H1       0.39439    0.93441    0.87482   1.00
C3b      0.54405    0.94097    0.86321   1.00
C4       0.49968    0.96006    0.87202   1.00
O_3      0.51960    0.94523    0.91395   1.00
C5       0.30196    0.83790    0.83946   1.00
H2       0.31140    0.89082    0.84168   1.00
C5       0.22531    0.78738    0.84074   1.00
H2       0.32110    0.83451    0.82417   1.00
H2       0.20366    0.80348    0.85332   1.00
H2       0.21882    0.73700    0.84519   1.00
C5       0.18755    0.78142    0.82071   1.00
H2       0.19897    0.83291    0.81568   1.00
H2       0.13142    0.74878    0.82272   1.00
H2       0.20261    0.75710    0.80855   1.00
C5       0.43775    0.83858    0.92760   1.00
H2       0.46163    0.84768    0.94289   1.00
H2       0.46485    0.81987    0.91771   1.00
C5       0.36131    0.78514    0.92863   1.00
H2       0.35400    0.73897    0.93676   1.00
C5       -0.06208   0.59686    0.96374   1.00
H2       -0.10916   0.59682    0.95901   1.00
H2       -0.02001   0.65041    0.96215   1.00
C5       -0.06904   0.57347    0.98610   1.00
H2       -0.05737   0.61641    0.99662   1.00
H2       -0.03347   0.55405    0.98925   1.00
O_3      0.09515    0.49246    0.89298   1.00
C4       -0.01787   0.50939    0.88546   1.00
C3c      -0.02242   0.54511    0.90224   1.00
H1       0.01812    0.59657    0.90519   1.00
C3d      -0.07170   0.44274    0.88172   1.00
C3       -0.07846   0.51499    0.91559   1.00
O2       -0.08338   0.55577    0.93019   1.00
C3       -0.12695   0.41214    0.89520   1.00
H1       -0.16584   0.36008    0.89212   1.00
C2       -0.13200   0.44727    0.91237   1.00
C5       0.08378    0.42775    0.88697   1.00
H2       0.12383    0.43150    0.87635   1.00
H2       0.03320    0.39757    0.87940   1.00
C5       0.08509    0.39036    0.90595   1.00
H2       0.04638    0.38830    0.91680   1.00
H2       0.13602    0.42062    0.91328   1.00
C5       0.07067    0.31826    0.90085   1.00
H2       0.10887    0.31992    0.88991   1.00
H2       0.01888    0.28726    0.89418   1.00
H2       0.07333    0.29228    0.91484   1.00
C5       -0.09231   0.41587    0.84815   1.00
C5       -0.05305   0.55118    0.94842   1.00
H2       -0.06124   0.47008    0.84339   1.00
H2       -0.14654   0.40299    0.84970   1.00
H2       0.00225    0.56965    0.94596   1.00
H2       -0.07690   0.49773    0.95427   1.00
H2       -0.12236   0.53259    0.98960   1.00
H2       -0.05086   0.44321    0.80617   1.00
H2       -0.14297   0.39629    0.80926   1.00
C2       0.15470    0.59536    0.84564   1.00
C3       0.10018    0.60754    0.84218   1.00
O2       0.09331    0.63189    0.82367   1.00
C3       0.15214    0.55731    0.86298   1.00
H1       0.19387    0.54860    0.86635   1.00
C3a      0.04420    0.58032    0.85564   1.00
H1       0.00112    0.58680    0.85214   1.00
C3b      0.09542    0.52848    0.87597   1.00
C4       0.04079    0.53974    0.87234   1.00
O_3      -0.06731   0.40358    0.86632   1.00
C5       0.11618    0.70227    0.82499   1.00
H2       0.08647    0.71279    0.83651   1.00
C5       0.10585    0.72500    0.80406   1.00
H2       0.17126    0.73163    0.82912   1.00
H2       0.05122    0.71023    0.80249   1.00
H2       0.11576    0.69505    0.79253   1.00
C5       0.15225    0.80214    0.80040   1.00
H2       0.14560    0.83113    0.81293   1.00
H2       0.13928    0.81764    0.78579   1.00
H2       0.20708    0.81635    0.79937   1.00
C5       -0.08768   0.37091    0.83179   1.00
H2       -0.12753   0.31706    0.83480   1.00
H2       -0.03737   0.37362    0.83324   1.00
C5       -0.09568   0.39296    0.81035   1.00
H2       -0.09919   0.35501    0.79902   1.00
C5       0.43358    0.38775    0.96948   1.00
H2       0.42379    0.33534    0.96653   1.00
H2       0.38271    0.38389    0.96971   1.00
C5       0.46926    0.41267    0.99028   1.00
H2       0.43142    0.39217    1.00286   1.00
H2       0.49693    0.46938    0.99089   1.00
O_3      0.52984    0.61168    0.88775   1.00
C4       0.49045    0.47263    0.88549   1.00
C3c      0.46111    0.44454    0.90436   1.00
H1       0.41467    0.44324    0.90898   1.00
C3d      0.55044    0.47294    0.87963   1.00
C3       0.49144    0.41869    0.91765   1.00
O2       0.45553    0.38456    0.93471   1.00
C3       0.58147    0.44842    0.89300   1.00
H1       0.62873    0.45193    0.88815   1.00
C2       0.55289    0.42052    0.91224   1.00
C5       0.59312    0.65422    0.87825   1.00
H2       0.58963    0.68800    0.86659   1.00
H2       0.61307    0.62350    0.87076   1.00
C5       0.64302    0.69867    0.89456   1.00
H2       0.64507    0.66492    0.90650   1.00
H2       0.62292    0.72956    0.90179   1.00
C5       0.71412    0.74502    0.88560   1.00
H2       0.71237    0.77852    0.87357   1.00
H2       0.73522    0.71421    0.87900   1.00
H2       0.74949    0.77818    0.89766   1.00
C5       0.55748    0.45780    0.84570   1.00
C5       0.47491    0.43024    0.95126   1.00
H2       0.50252    0.44004    0.84324   1.00
H2       0.56353    0.41245    0.84839   1.00
H2       0.46263    0.47126    0.94798   1.00
H2       0.53078    0.45554    0.95457   1.00
H2       0.50603    0.39423    0.99312   1.00
H2       0.51238    0.45597    0.80460   1.00
H2       0.54932    0.40151    0.80806   1.00
C2       0.40492    0.55897    0.84540   1.00
C3       0.38177    0.48840    0.84472   1.00
O2       0.34502    0.44990    0.82827   1.00
C3       0.45403    0.59905    0.86020   1.00
H1       0.47149    0.65289    0.86146   1.00
C3a      0.40910    0.46007    0.85829   1.00
H1       0.39372    0.40673    0.85682   1.00
C3b      0.48270    0.57114    0.87324   1.00
C4       0.46041    0.50118    0.87234   1.00
O_3      0.58412    0.50463    0.86191   1.00
C5       0.27500    0.41213    0.83309   1.00
H2       0.26553    0.37707    0.84615   1.00
C5       0.23813    0.37017    0.81429   1.00
H2       0.25477    0.44660    0.83698   1.00
H2       0.24441    0.32447    0.81380   1.00
H2       0.26503    0.40150    0.80073   1.00
C5       0.16192    0.34881    0.81378   1.00
H2       0.13707    0.32232    0.82813   1.00
H2       0.13568    0.31374    0.80084   1.00
H2       0.15485    0.39389    0.81166   1.00
C5       0.59681    0.49442    0.82666   1.00
H2       0.64910    0.50164    0.82773   1.00
H2       0.60251    0.54623    0.82643   1.00
C5       0.56073    0.45528    0.80723   1.00
H2       0.59412    0.47959    0.79387   1.00
C5       0.63630    0.38598    0.29510   1.00
H2       0.65431    0.35139    0.28955   1.00
H2       0.63308    0.38038    0.31186   1.00
C5       0.68841    0.46031    0.28912   1.00
H2       0.73191    0.48297    0.29996   1.00
H2       0.66330    0.49183    0.28902   1.00
O_3      0.28806    0.26973    0.29056   1.00
C4       0.35067    0.19269    0.28101   1.00
C3c      0.41772    0.23035    0.28835   1.00
H1       0.42658    0.23887    0.30447   1.00
C3d      0.34028    0.18134    0.25997   1.00
C3       0.47410    0.25831    0.27511   1.00
O2       0.53822    0.28730    0.28353   1.00
C3       0.39625    0.21022    0.24671   1.00
H1       0.38564    0.20218    0.23065   1.00
C2       0.46435    0.24906    0.25387   1.00
C5       0.24488    0.26867    0.27494   1.00
H2       0.19222    0.25150    0.28048   1.00
H2       0.24149    0.23423    0.26234   1.00
C5       0.27506    0.34088    0.26685   1.00
H2       0.32836    0.35876    0.26184   1.00
H2       0.27760    0.37469    0.27951   1.00
C5       0.23238    0.34390    0.24924   1.00
H2       0.17896    0.32567    0.25410   1.00
H2       0.23177    0.31202    0.23631   1.00
H2       0.25437    0.39731    0.24382   1.00
C5       0.24929    0.07800    0.25162   1.00
C5       0.56493    0.35817    0.28608   1.00
H2       0.24509    0.05769    0.26723   1.00
H2       0.28201    0.06427    0.24240   1.00
H2       0.53205    0.36761    0.29666   1.00
H2       0.56774    0.38464    0.27148   1.00
H2       0.71084    0.46265    0.27382   1.00
H2       0.12408    -0.04379   0.26253   1.00
H2       0.16751    -0.05708   0.24134   1.00
C2       0.17688    0.11291    0.32027   1.00
C3       0.20968    0.07488    0.31655   1.00
O2       0.17743    0.00626    0.32112   1.00
C3       0.20485    0.17864    0.31158   1.00
H1       0.18199    0.20975    0.31456   1.00
C3a      0.26785    0.10219    0.30396   1.00
H1       0.29005    0.07088    0.30032   1.00
C3b      0.26139    0.20475    0.29854   1.00
C4       0.29331    0.16646    0.29460   1.00
O_3      0.27522    0.14908    0.25184   1.00
C5       0.20352    -0.00429   0.33934   1.00
H2       0.25947    0.01514    0.33817   1.00
C5       0.16619    -0.08128   0.34314   1.00
H2       0.19429    0.02169    0.35230   1.00
H2       0.18976    -0.10422   0.33346   1.00
H2       0.11279    -0.10243   0.33770   1.00
C5       0.16715    -0.09961   0.36562   1.00
H2       0.22057    -0.07367   0.37124   1.00
H2       0.14465    -0.15567   0.36752   1.00
H2       0.13614    -0.08448   0.37521   1.00
C5       0.17841    0.04488    0.24224   1.00
H2       0.18382    0.05591    0.22567   1.00
H2       0.15088    0.06975    0.24876   1.00
C5       0.13781    -0.03248   0.24617   1.00
H2       0.08947    -0.05592   0.23738   1.00
C5       0.59677    0.38659    0.28828   1.00
H2       0.57423    0.39140    0.27385   1.00
H2       0.57391    0.40273    0.30044   1.00
C5       0.57792    0.31142    0.29139   1.00
H2       0.52556    0.28089    0.29774   1.00
H2       0.61483    0.30866    0.30194   1.00
O_3      0.91986    0.65016    0.31438   1.00
C4       0.84255    0.64966    0.28088   1.00
C3c      0.77633    0.59484    0.28407   1.00
H1       0.74694    0.59576    0.29686   1.00
C3d      0.87961    0.64790    0.26395   1.00
C3       0.74739    0.53781    0.27107   1.00
O2       0.67959    0.49018    0.27369   1.00
C3       0.85143    0.59061    0.25121   1.00
H1       0.88270    0.59048    0.23884   1.00
C2       0.78483    0.53440    0.25434   1.00
C5       0.98633    0.66546    0.30892   1.00
H2       1.02633    0.70925    0.31772   1.00
H2       0.99597    0.67794    0.29244   1.00
C5       0.99228    0.60282    0.31338   1.00
H2       0.95109    0.55862    0.30503   1.00
H2       0.98319    0.59122    0.32989   1.00
C5       1.06253    0.61425    0.30718   1.00
H2       1.10393    0.65861    0.31536   1.00
H2       1.07069    0.62349    0.29057   1.00
H2       1.06645    0.56849    0.31097   1.00
C5       0.94889    0.75207    0.24974   1.00
C5       0.67327    0.43740    0.28658   1.00
H2       0.92356    0.77610    0.25804   1.00
H2       0.92385    0.73441    0.23464   1.00
H2       0.69501    0.45842    0.30183   1.00
H2       0.70071    0.41148    0.28058   1.00
H2       0.57781    0.28687    0.27666   1.00
H2       1.01901    0.89916    0.25171   1.00
H2       1.00043    0.86703    0.22586   1.00
C2       0.93622    0.82087    0.32111   1.00
C3       0.89468    0.82019    0.30504   1.00
O2       0.89719    0.87971    0.29896   1.00
C3       0.94305    0.76268    0.32408   1.00
H1       0.97305    0.76089    0.33656   1.00
C3a      0.86273    0.76291    0.29213   1.00
H1       0.83429    0.76476    0.27921   1.00
C3b      0.91300    0.70672    0.31082   1.00
C4       0.87258    0.70654    0.29466   1.00
O_3      0.94680    0.69808    0.26100   1.00
C5       0.84044    0.88248    0.30661   1.00
H2       0.79155    0.83845    0.30112   1.00
C5       0.84635    0.94905    0.29896   1.00
H2       0.84028    0.88223    0.32352   1.00
H2       0.82815    0.94146    0.28297   1.00
H2       0.90158    0.98812    0.29861   1.00
C5       0.80651    0.97357    0.31214   1.00
H2       0.75268    0.93196    0.31363   1.00
H2       0.80727    1.01873    0.30517   1.00
H2       0.82976    0.98970    0.32755   1.00
C5       1.02355    0.80528    0.24656   1.00
H2       1.04578    0.78500    0.23536   1.00
H2       1.05107    0.81199    0.26114   1.00
C5       1.03250    0.87403    0.23943   1.00
H2       1.08658    0.90919    0.23525   1.00
C5       0.77977    0.39717    0.28970   1.00
H2       0.80846    0.42193    0.27563   1.00
H2       0.81719    0.41959    0.30229   1.00
C5       0.72145    0.41331    0.29252   1.00
H2       0.74101    0.46473    0.29936   1.00
H2       0.68121    0.37447    0.30254   1.00
O_3      0.72793    0.07505    0.31330   1.00
C4       0.80714    0.15749    0.28088   1.00
C3c      0.81596    0.22250    0.28457   1.00
H1       0.84423    0.25094    0.29776   1.00
C3d      0.77098    0.12169    0.26345   1.00
C3       0.78786    0.25139    0.27157   1.00
O2       0.80560    0.31832    0.27476   1.00
C3       0.74182    0.14977    0.25068   1.00
H1       0.71247    0.11940    0.23789   1.00
C2       0.74962    0.21513    0.25431   1.00
C5       0.67894    0.00864    0.30705   1.00
H2       0.68322    -0.03149   0.31563   1.00
H2       0.68409    0.00118    0.29055   1.00
C5       0.60887    -0.00015   0.31097   1.00
H2       0.60529    0.04112    0.30286   1.00
H2       0.60406    0.00678    0.32751   1.00
C5       0.55233    -0.07045   0.30391   1.00
H2       0.55589    -0.11191   0.31184   1.00
H2       0.55566    -0.07651   0.28726   1.00
H2       0.50150    -0.07650   0.30730   1.00
C5       0.81064    0.05659    0.24907   1.00
C5       0.75661    0.32139    0.28734   1.00
H2       0.85895    0.08224    0.25788   1.00
H2       0.81899    0.08315    0.23419   1.00
H2       0.75490    0.29829    0.30243   1.00
H2       0.70404    0.29326    0.28078   1.00
H2       0.69830    0.41425    0.27763   1.00
H2       0.89123    -0.00971   0.25115   1.00
H2       0.87979    0.01102    0.22534   1.00
C2       0.88473    0.06371    0.32106   1.00
C3       0.92665    0.10777    0.30556   1.00
O2       0.98542    0.10802    0.29989   1.00
C3       0.81850    0.05435    0.32350   1.00
H1       0.78581    0.02235    0.33555   1.00
C3a      0.90123    0.13970    0.29267   1.00
H1       0.93251    0.17017    0.28017   1.00
C3b      0.79260    0.08444    0.31026   1.00
C4       0.83394    0.12739    0.29466   1.00
O_3      0.75646    0.05550    0.25996   1.00
C5       1.04301    0.16494    0.30833   1.00
H2       1.04682    0.21372    0.30319   1.00
C5       1.10581    0.16217    0.30109   1.00
H2       1.04094    0.16315    0.32522   1.00
H2       1.11780    0.18225    0.28530   1.00
H2       1.09142    0.10745    0.30027   1.00
C5       1.16828    0.20204    0.31498   1.00
H2       1.17859    0.25512    0.31690   1.00
H2       1.21428    0.20367    0.30833   1.00
H2       1.16010    0.17720    0.33018   1.00
C5       0.79189    -0.01707   0.24526   1.00
H2       0.75078    -0.03910   0.23362   1.00
H2       0.77004    -0.04648   0.25951   1.00
C5       0.85388    -0.02290   0.23851   1.00
H2       0.83708    -0.07616   0.23385   1.00
C5       0.82858    0.63215    0.69404   1.00
H2       0.84967    0.59725    0.69485   1.00
H2       0.87326    0.68426    0.69240   1.00
C5       0.78123    0.61378    0.67535   1.00
H2       0.81145    0.63645    0.66130   1.00
H2       0.74503    0.63305    0.67745   1.00
O_3      0.74247    0.72720    0.78481   1.00
C4       0.80701    0.64896    0.78114   1.00
C3c      0.82807    0.65537    0.76084   1.00
H1       0.86601    0.70465    0.75507   1.00
C3d      0.75823    0.58411    0.78843   1.00
C3       0.80009    0.59897    0.74761   1.00
O2       0.82909    0.60740    0.72871   1.00
C3       0.72932    0.52811    0.77519   1.00
H1       0.69034    0.47989    0.78128   1.00
C2       0.74949    0.53384    0.75455   1.00
C5       0.68394    0.69583    0.79726   1.00
H2       0.68617    0.72979    0.80984   1.00
H2       0.67721    0.64770    0.80405   1.00
C5       0.62261    0.67926    0.78404   1.00
H2       0.62147    0.64690    0.77115   1.00
H2       0.62958    0.72774    0.77750   1.00
C5       0.55622    0.64266    0.79628   1.00
H2       0.55720    0.67450    0.80926   1.00
H2       0.54802    0.59312    0.80223   1.00
H2       0.51212    0.63232    0.78647   1.00
C5       0.77370    0.56515    0.82147   1.00
C5       0.79377    0.62517    0.71452   1.00
H2       0.82630    0.60976    0.82188   1.00
H2       0.77655    0.51883    0.81737   1.00
H2       0.79752    0.67456    0.71888   1.00
H2       0.73833    0.58612    0.71356   1.00
H2       0.75176    0.55742    0.67284   1.00
H2       0.83533    0.61510    0.86071   1.00
H2       0.81297    0.52707    0.85632   1.00
C2       0.88452    0.81990    0.82149   1.00
C3       0.91975    0.78360    0.81908   1.00
O2       0.96853    0.79104    0.83299   1.00
C3       0.82560    0.80046    0.80958   1.00
H1       0.79850    0.82833    0.81068   1.00
C3a      0.89473    0.72829    0.80541   1.00
H1       0.92004    0.69860    0.80460   1.00
C3b      0.79963    0.74409    0.79648   1.00
C4       0.83411    0.70740    0.79434   1.00
O_3      0.73203    0.57603    0.80784   1.00
C5       1.03443    0.83418    0.82515   1.00
H2       1.04293    0.81319    0.81082   1.00
C5       1.08532    0.83887    0.84124   1.00
H2       1.04257    0.88612    0.82203   1.00
H2       1.08976    0.79215    0.84027   1.00
H2       1.06280    0.83763    0.85637   1.00
C5       1.15599    0.90339    0.83907   1.00
H2       1.17529    0.90656    0.82338   1.00
H2       1.19307    0.90215    0.84990   1.00
H2       1.15378    0.95057    0.84257   1.00
C5       0.74229    0.55530    0.84249   1.00
H2       0.69496    0.50449    0.84301   1.00
H2       0.72658    0.59429    0.84469   1.00
C5       0.79224    0.56160    0.85932   1.00
H2       0.76549    0.54716    0.87418   1.00
C5       0.57587    0.43406    0.77458   1.00
H2       0.61586    0.41981    0.77650   1.00
H2       0.56820    0.44996    0.78984   1.00
C5       0.60095    0.49404    0.75942   1.00
H2       0.63504    0.54347    0.76707   1.00
H2       0.55663    0.49578    0.75280   1.00
O_3      0.23735    0.17250    0.77334   1.00
C4       0.35102    0.15690    0.78112   1.00
C3c      0.40600    0.22298    0.78437   1.00
H1       0.40539    0.25211    0.79728   1.00
C3d      0.35328    0.11943    0.76438   1.00
C3       0.46191    0.25284    0.77097   1.00
O2       0.51742    0.31417    0.77647   1.00
C3       0.40826    0.14950    0.75079   1.00
H1       0.40660    0.11970    0.73777   1.00
C2       0.46393    0.21655    0.75373   1.00
C5       0.19482    0.12840    0.75795   1.00
H2       0.14092    0.09670    0.76306   1.00
H2       0.21314    0.09347    0.75271   1.00
C5       0.19674    0.17231    0.74025   1.00
H2       0.25081    0.20539    0.73551   1.00
H2       0.17775    0.20652    0.74561   1.00
C5       0.15355    0.12813    0.72248   1.00
H2       0.09958    0.09463    0.72715   1.00
H2       0.17391    0.09567    0.71666   1.00
H2       0.15436    0.16112    0.70986   1.00
C5       0.30395    0.00511    0.77017   1.00
C5       0.51173    0.36850    0.76802   1.00
H2       0.30292    0.01155    0.78687   1.00
H2       0.35188    0.00529    0.76612   1.00
H2       0.46519    0.36772    0.77396   1.00
H2       0.50769    0.36566    0.75109   1.00
H2       0.63160    0.48914    0.74692   1.00
H2       0.21688    -0.11430   0.79404   1.00
H2       0.28167    -0.12253   0.78010   1.00
C2       0.17613    0.06624    0.82002   1.00
C3       0.23401    0.06082    0.82481   1.00
O2       0.22936    0.01324    0.83875   1.00
C3       0.17898    0.10486    0.80279   1.00
H1       0.13620    0.11146    0.79901   1.00
C3a      0.29202    0.09216    0.81217   1.00
H1       0.33441    0.08428    0.81538   1.00
C3b      0.23590    0.13412    0.78989   1.00
C4       0.29299    0.12780    0.79450   1.00
O_3      0.29820    0.05626    0.75965   1.00
C5       0.25708    0.04496    0.85752   1.00
H2       0.31185    0.08503    0.85595   1.00
C5       0.25109    -0.01069   0.87197   1.00
H2       0.22839    0.06888    0.86388   1.00
H2       0.29333    -0.02095   0.86862   1.00
H2       0.20275    -0.05832   0.86825   1.00
C5       0.25222    0.00809    0.89451   1.00
H2       0.29814    0.05838    0.89757   1.00
H2       0.25356    -0.03085   0.90450   1.00
H2       0.20539    0.01004    0.89872   1.00
C5       0.24315    -0.06332   0.76422   1.00
H2       0.25054    -0.07497   0.74833   1.00
H2       0.19670    -0.05821   0.76431   1.00
C5       0.23357    -0.12086   0.77868   1.00
H2       0.19348    -0.17089   0.77270   1.00
C5       0.57634    0.17030    0.78124   1.00
H2       0.59645    0.22619    0.78151   1.00
H2       0.56468    0.15316    0.79726   1.00
C5       0.51069    0.13533    0.76823   1.00
H2       0.46579    0.12804    0.77715   1.00
H2       0.50136    0.08477    0.76285   1.00
O_3      0.81113    0.05755    0.77692   1.00
C4       0.84319    0.19413    0.78110   1.00
C3c      0.78156    0.19167    0.78587   1.00
H1       0.75597    0.16878    0.79997   1.00
C3d      0.87620    0.22506    0.76278   1.00
C3       0.75152    0.21763    0.77250   1.00
O2       0.69577    0.22097    0.77927   1.00
C3       0.84577    0.24977    0.74926   1.00
H1       0.87175    0.27086    0.73507   1.00
C2       0.78309    0.24702    0.75374   1.00
C5       0.84656    0.04816    0.76077   1.00
H2       0.87559    0.02295    0.76579   1.00
H2       0.88312    0.09784    0.75357   1.00
C5       0.79414    0.00285    0.74512   1.00
H2       0.76384    0.02711    0.74052   1.00
H2       0.75830    -0.04682   0.75242   1.00
C5       0.82867    -0.00803   0.72662   1.00
H2       0.85940    -0.03180   0.73112   1.00
H2       0.86265    0.04129    0.71891   1.00
H2       0.78947    -0.04247   0.71555   1.00
C5       0.99232    0.28155    0.76470   1.00
C5       0.63513    0.16144    0.77344   1.00
H2       0.99185    0.28069    0.78157   1.00
H2       0.99598    0.33016    0.75949   1.00
H2       0.63299    0.11557    0.78046   1.00
H2       0.63119    0.15357    0.75663   1.00
H2       0.51449    0.16738    0.75485   1.00
H2       1.11643    0.30990    0.78526   1.00
H2       1.12699    0.38032    0.76945   1.00
C2       0.93311    0.10926    0.82004   1.00
C3       0.94710    0.17676    0.82310   1.00
O2       1.00162    0.22122    0.83493   1.00
C3       0.88650    0.07002    0.80459   1.00
H1       0.87335    0.01763    0.80221   1.00
C3a      0.91605    0.20384    0.81049   1.00
H1       0.93028    0.25680    0.81227   1.00
C3b      0.85740    0.09779    0.79167   1.00
C4       0.87217    0.16523    0.79452   1.00
O_3      0.93422    0.22416    0.75667   1.00
C5       0.97875    0.22781    0.85426   1.00
H2       0.94244    0.24749    0.85310   1.00
C5       1.04175    0.27854    0.86627   1.00
H2       0.95296    0.17788    0.86233   1.00
H2       1.05594    0.33111    0.86144   1.00
H2       1.08466    0.27065    0.86168   1.00
C5       1.03085    0.27064    0.88942   1.00
H2       0.98463    0.27327    0.89353   1.00
H2       1.07551    0.31191    0.89757   1.00
H2       1.02515    0.22128    0.89486   1.00
C5       1.05473    0.27908    0.75729   1.00
H2       1.06167    0.29176    0.74083   1.00
H2       1.04420    0.22567    0.75878   1.00
C5       1.11929    0.32779    0.76932   1.00
H2       1.16479    0.32997    0.76219   1.00
C5       -0.06074   0.34424    0.46422   1.00
H2       -0.07301   0.38034    0.47197   1.00
H2       -0.00584   0.36341    0.46723   1.00
C5       -0.10483   0.27202    0.47328   1.00
H2       -0.08230   0.26669    0.48769   1.00
H2       -0.10867   0.23290    0.46230   1.00
O_3      0.00450    0.38623    0.36050   1.00
C4       -0.01735   0.47396    0.38565   1.00
C3c      -0.01296   0.45506    0.40563   1.00
H1       0.03481    0.46139    0.41117   1.00
C3d      -0.07981   0.46620    0.37882   1.00
C3       -0.06992   0.42694    0.41865   1.00
O2       -0.05967   0.41747    0.43869   1.00
C3       -0.13696   0.43701    0.39162   1.00
H1       -0.18438   0.42982    0.38548   1.00
C2       -0.13359   0.41692    0.41180   1.00
C5       -0.03821   0.36475    0.34326   1.00
H2       -0.00871   0.37584    0.32886   1.00
H2       -0.06964   0.39005    0.34254   1.00
C5       -0.08518   0.28813    0.34493   1.00
H2       -0.11326   0.27687    0.35959   1.00
H2       -0.05329   0.26336    0.34544   1.00
C5       -0.13522   0.26078    0.32707   1.00
H2       -0.10751   0.27226    0.31237   1.00
H2       -0.16869   0.28372    0.32696   1.00
H2       -0.16811   0.20451    0.32832   1.00
C5       -0.06852   0.54863    0.35668   1.00
C5       -0.07207   0.35035    0.44160   1.00
H2       -0.01369   0.58222    0.36043   1.00
H2       -0.09948   0.56282    0.36657   1.00
H2       -0.03577   0.34181    0.43233   1.00
H2       -0.12490   0.31076    0.43707   1.00
H2       -0.15721   0.26182    0.47711   1.00
H2       0.01326    0.65902    0.32915   1.00
H2       -0.05735   0.66517    0.33994   1.00
C2       0.15185    0.55254    0.34462   1.00
C3       0.14393    0.59710    0.35786   1.00
O2       0.17920    0.66651    0.35445   1.00
C3       0.10481    0.48181    0.34602   1.00
H1       0.11050    0.44619    0.33647   1.00
C3a      0.08890    0.57061    0.37166   1.00
H1       0.08129    0.60575    0.38087   1.00
C3b      0.04891    0.45586    0.35930   1.00
C4       0.04049    0.50032    0.37223   1.00
O_3      -0.08822   0.47918    0.35883   1.00
C5       0.23544    0.69867    0.36773   1.00
H2       0.21875    0.68954    0.38392   1.00
C5       0.27101    0.77519    0.36325   1.00
H2       0.27185    0.67982    0.36517   1.00
H2       0.24208    0.79673    0.37088   1.00
H2       0.26674    0.78121    0.34663   1.00
C5       0.34634    0.81355    0.36995   1.00
H2       0.35003    0.80259    0.38619   1.00
H2       0.36876    0.86958    0.36803   1.00
H2       0.37788    0.79855    0.36057   1.00
C5       -0.07981   0.56018    0.33461   1.00
H2       -0.13570   0.53590    0.33188   1.00
H2       -0.06079   0.53308    0.32485   1.00
C5       -0.04328   0.63648    0.32913   1.00
H2       -0.05836   0.64327    0.31365   1.00
C5       0.39921    1.06512    0.46265   1.00
H2       0.44617    1.07587    0.47098   1.00
H2       0.36178    1.01057    0.46555   1.00
C5       0.37223    1.11109    0.47099   1.00
H2       0.34240    1.08926    0.48516   1.00
H2       0.33905    1.11623    0.45950   1.00
O_3      0.38598    0.99897    0.35915   1.00
C4       0.49131    1.01733    0.38566   1.00
C3c      0.46599    1.01383    0.40533   1.00
H1       0.42296    0.96676    0.41063   1.00
C3d      0.54803    1.07885    0.37916   1.00
C3       0.49488    1.07082    0.41834   1.00
O2       0.47285    1.06123    0.43815   1.00
C3       0.57609    1.13606    0.39193   1.00
H1       0.61800    1.18282    0.38602   1.00
C2       0.55064    1.13362    0.41179   1.00
C5       0.41037    1.04156    0.34192   1.00
H2       0.39290    1.01213    0.32748   1.00
H2       0.46724    1.07147    0.34178   1.00
C5       0.38287    1.09048    0.34284   1.00
H2       0.39872    1.11853    0.35752   1.00
H2       0.32608    1.06011    0.34278   1.00
C5       0.40904    1.14047    0.32495   1.00
H2       0.39380    1.11279    0.31024   1.00
H2       0.46560    1.17247    0.32540   1.00
H2       0.38721    1.17483    0.32564   1.00
C5       0.61991    1.06461    0.35811   1.00
C5       0.41933    1.07588    0.44021   1.00
H2       0.59662    1.00960    0.36195   1.00
H2       0.66418    1.09452    0.36840   1.00
H2       0.37510    1.04053    0.43058   1.00
H2       0.43480    1.12914    0.43549   1.00
H2       0.41508    1.16288    0.47504   1.00
H2       0.64810    0.98016    0.33158   1.00
H2       0.72472    1.04927    0.34294   1.00
C2       0.40091    0.84820    0.34460   1.00
C3       0.45112    0.85441    0.35851   1.00
O2       0.48366    0.81722    0.35583   1.00
C3       0.37928    0.89696    0.34534   1.00
H1       0.33968    0.89264    0.33525   1.00
C3a      0.47955    0.90944    0.37230   1.00
H1       0.52067    0.91567    0.38205   1.00
C3b      0.40919    0.95284    0.35862   1.00
C4       0.45984    0.95953    0.37222   1.00
O_3      0.57163    1.08651    0.35942   1.00
C5       0.45643    0.76094    0.36916   1.00
H2       0.46258    0.77774    0.38532   1.00
C5       0.49577    0.72321    0.36551   1.00
H2       0.40120    0.72590    0.36609   1.00
H2       0.54543    0.75084    0.37364   1.00
H2       0.50793    0.72707    0.34902   1.00
C5       0.45594    0.64793    0.37223   1.00
H2       0.43957    0.64481    0.38827   1.00
H2       0.48828    0.62385    0.37093   1.00
H2       0.41023    0.61748    0.36243   1.00
C5       0.64528    1.07514    0.33630   1.00
H2       0.67866    1.13084    0.33361   1.00
H2       0.60049    1.05742    0.32603   1.00
C5       0.68353    1.03645    0.33164   1.00
H2       0.70733    1.05092    0.31637   1.00
C5       0.66554    0.60058    0.46271   1.00
H2       0.62933    0.55356    0.47102   1.00
H2       0.64834    0.63795    0.46561   1.00
C5       0.73847    0.62761    0.47108   1.00
H2       0.74636    0.65736    0.48526   1.00
H2       0.77682    0.66086    0.45961   1.00
O_3      0.61304    0.61419    0.35920   1.00
C4       0.52603    0.50869    0.38566   1.00
C3c      0.54774    0.53394    0.40534   1.00
H1       0.54362    0.57691    0.41065   1.00
C3d      0.53093    0.45204    0.37914   1.00
C3       0.57584    0.50505    0.41835   1.00
O2       0.58817    0.52699    0.43817   1.00
C3       0.56010    0.42399    0.39191   1.00
H1       0.56503    0.38214    0.38600   1.00
C2       0.58299    0.44936    0.41179   1.00
C5       0.63136    0.58991    0.34197   1.00
H2       0.61944    0.60742    0.32753   1.00
H2       0.60446    0.53304    0.34180   1.00
C5       0.70779    0.61749    0.34292   1.00
H2       0.71996    0.60161    0.35760   1.00
H2       0.73415    0.67428    0.34288   1.00
C5       0.73175    0.59146    0.32503   1.00
H2       0.71933    0.60673    0.31032   1.00
H2       0.70724    0.53490    0.32545   1.00
H2       0.78794    0.61335    0.32574   1.00
C5       0.44496    0.38019    0.35805   1.00
C5       0.65630    0.58056    0.44027   1.00
H2       0.41317    0.40340    0.36189   1.00
H2       0.43060    0.33588    0.36833   1.00
H2       0.66517    0.62481    0.43065   1.00
H2       0.69416    0.56517    0.43555   1.00
H2       0.74744    0.58478    0.47512   1.00
H2       0.33240    0.35198    0.33149   1.00
H2       0.32493    0.27535    0.34282   1.00
C2       0.44730    0.59910    0.34460   1.00
C3       0.40328    0.54880    0.35848   1.00
O2       0.33356    0.51620    0.35578   1.00
C3       0.51772    0.62081    0.34536   1.00
H1       0.55300    0.66047    0.33530   1.00
C3a      0.42988    0.52037    0.37228   1.00
H1       0.39498    0.47918    0.38201   1.00
C3b      0.54368    0.59089    0.35865   1.00
C4       0.49970    0.54016    0.37222   1.00
O_3      0.51511    0.42853    0.35940   1.00
C5       0.30440    0.54331    0.36910   1.00
H2       0.31498    0.53710    0.38527   1.00
C5       0.22734    0.50390    0.36542   1.00
H2       0.32454    0.59855    0.36605   1.00
H2       0.20533    0.45422    0.37354   1.00
H2       0.21913    0.49181    0.34893   1.00
C5       0.19178    0.54363    0.37214   1.00
H2       0.20494    0.55993    0.38819   1.00
H2       0.13538    0.51124    0.37083   1.00
H2       0.20703    0.58937    0.36236   1.00
C5       0.43024    0.35491    0.33624   1.00
H2       0.45264    0.32160    0.33354   1.00
H2       0.45731    0.39975    0.32599   1.00
C5       0.35333    0.31660    0.33155   1.00
H2       0.34409    0.29288    0.31627   1.00
C5       0.31291    0.39030    0.29891   1.00
H2       0.36164    0.43628    0.29463   1.00
H2       0.32240    0.34679    0.29786   1.00
C5       0.29391    0.39814    0.32090   1.00
H2       0.32233    0.38478    0.33204   1.00
H2       0.23820    0.36429    0.32338   1.00
O_3      0.06092    0.24160    0.22498   1.00
C4       0.19396    0.35120    0.21881   1.00
C3c      0.23098    0.35400    0.23622   1.00
H1       0.23933    0.31207    0.23968   1.00
C3d      0.18449    0.40680    0.21442   1.00
C3       0.25687    0.41007    0.24956   1.00
O2       0.29952    0.41301    0.26489   1.00
C3       0.20908    0.46212    0.22788   1.00
H1       0.19849    0.50247    0.22426   1.00
C2       0.24598    0.46544    0.24567   1.00
C5       0.01031    0.25565    0.21796   1.00
H2       -0.02537   0.21638    0.20705   1.00
H2       0.03365    0.30642    0.21035   1.00
C5       -0.03028   0.25605    0.23626   1.00
H2       0.00565    0.29393    0.24742   1.00
H2       -0.05386   0.20494    0.24362   1.00
C5       -0.08512   0.27342    0.23005   1.00
H2       -0.12090   0.23606    0.21880   1.00
H2       -0.06147   0.32541    0.22334   1.00
H2       -0.11523   0.27198    0.24355   1.00
C5       0.18427    0.42818    0.18062   1.00
C5       0.26138    0.38358    0.28274   1.00
H2       0.20610    0.39538    0.17651   1.00
H2       0.22686    0.48172    0.18246   1.00
H2       0.22329    0.32875    0.28008   1.00
H2       0.23276    0.40929    0.28788   1.00
H2       0.30800    0.45207    0.32419   1.00
H2       0.17476    0.38650    0.13878   1.00
H2       0.22262    0.47857    0.14191   1.00
C2       0.10741    0.17882    0.17892   1.00
C3       0.17548    0.23151    0.17618   1.00
O2       0.20896    0.23712    0.15817   1.00
C3       0.07037    0.18303    0.19560   1.00
H1       0.01876    0.14267    0.19842   1.00
C3a      0.20413    0.28739    0.18967   1.00
H1       0.25495    0.32917    0.18669   1.00
C3b      0.09827    0.23971    0.20860   1.00
C4       0.16558    0.29255    0.20568   1.00
O_3      0.14408    0.40431    0.19833   1.00
C5       0.25405    0.21159    0.16049   1.00
H2       0.29296    0.24011    0.17246   1.00
C5       0.28983    0.22066    0.14008   1.00
H2       0.22582    0.15647    0.16461   1.00
H2       0.33146    0.27469    0.13876   1.00
H2       0.25220    0.21236    0.12795   1.00
C5       0.31822    0.17185    0.13732   1.00
H2       0.35144    0.17701    0.15040   1.00
H2       0.34872    0.18382    0.12312   1.00
H2       0.27622    0.11766    0.13602   1.00
C5       0.13810    0.42572    0.16347   1.00
H2       0.12583    0.46708    0.16591   1.00
H2       0.08914    0.37647    0.16449   1.00
C5       0.17092    0.43255    0.14251   1.00
H2       0.13916    0.43771    0.13057   1.00
C5       0.40259    0.57911    0.21751   1.00
H2       0.40993    0.56442    0.23297   1.00
H2       0.42292    0.55546    0.20690   1.00
C5       0.32565    0.55082    0.21363   1.00
H2       0.30014    0.49615    0.20912   1.00
H2       0.31855    0.58050    0.20137   1.00
O_3      0.64188    0.90131    0.18231   1.00
C4       0.64969    0.84267    0.21914   1.00
C3c      0.60012    0.77328    0.21788   1.00
H1       0.60521    0.74141    0.20661   1.00
C3d      0.64261    0.88309    0.23411   1.00
C3       0.54300    0.74416    0.23083   1.00
O2       0.50119    0.67446    0.23037   1.00
C3       0.58512    0.85455    0.24678   1.00
H1       0.58065    0.88809    0.25755   1.00
C2       0.53413    0.78464    0.24556   1.00
C5       0.64960    0.96669    0.18492   1.00
H2       0.69121    1.00591    0.17529   1.00
H2       0.66097    0.98348    0.20106   1.00
C5       0.58286    0.96240    0.17882   1.00
H2       0.54098    0.92187    0.18804   1.00
H2       0.57235    0.94623    0.16263   1.00
C5       0.58601    1.03105    0.18189   1.00
H2       0.62803    1.07186    0.17283   1.00
H2       0.59414    1.04610    0.19816   1.00
H2       0.53733    1.02732    0.17693   1.00
C5       0.74352    0.96588    0.24725   1.00
C5       0.44671    0.65691    0.21672   1.00
H2       0.77234    0.94245    0.24077   1.00
H2       0.72741    0.94625    0.26299   1.00
H2       0.46678    0.67387    0.20106   1.00
H2       0.41571    0.68116    0.22078   1.00
H2       0.29919    0.55316    0.22767   1.00
H2       0.89024    1.04882    0.24530   1.00
H2       0.85766    1.03737    0.27106   1.00
C2       0.82040    0.93588    0.17871   1.00
C3       0.82423    0.90359    0.19657   1.00
O2       0.88655    0.91591    0.20381   1.00
C3       0.75820    0.93354    0.17414   1.00
H1       0.75305    0.95624    0.16032   1.00
C3a      0.76722    0.87164    0.20959   1.00
H1       0.77222    0.85055    0.22377   1.00
C3b      0.70233    0.90364    0.18743   1.00
C4       0.70655    0.87248    0.20534   1.00
O_3      0.68717    0.95269    0.23498   1.00
C5       0.89679    0.86099    0.19898   1.00
H2       0.85615    0.81228    0.20574   1.00
C5       0.96608    0.87795    0.20777   1.00
H2       0.89718    0.85437    0.18223   1.00
H2       0.95973    0.86627    0.22430   1.00
H2       1.00049    0.93409    0.20638   1.00
C5       0.99740    0.83934    0.19715   1.00
H2       0.96019    0.78372    0.19728   1.00
H2       1.04475    0.84852    0.20504   1.00
H2       1.01213    0.85700    0.18115   1.00
C5       0.79034    1.04285    0.24807   1.00
H2       0.76576    1.06501    0.25766   1.00
H2       0.79456    1.06355    0.23248   1.00
C5       0.86158    1.06270    0.25626   1.00
H2       0.89185    1.11874    0.25863   1.00
C5       0.39719    0.77979    0.21030   1.00
H2       0.42193    0.80847    0.22437   1.00
H2       0.41961    0.81722    0.19771   1.00
C5       0.41333    0.72147    0.20748   1.00
H2       0.46475    0.74104    0.20064   1.00
H2       0.37450    0.68124    0.19746   1.00
O_3      0.07506    0.72794    0.18669   1.00
C4       0.15749    0.80714    0.21912   1.00
C3c      0.22250    0.81597    0.21543   1.00
H1       0.25094    0.84424    0.20224   1.00
C3d      0.12169    0.77097    0.23655   1.00
C3       0.25140    0.78787    0.22844   1.00
O2       0.31833    0.80561    0.22524   1.00
C3       0.14977    0.74182    0.24932   1.00
H1       0.11939    0.71246    0.26210   1.00
C2       0.21513    0.74962    0.24569   1.00
C5       0.00865    0.67894    0.19294   1.00
H2       -0.03148   0.68322    0.18437   1.00
H2       0.00118    0.68409    0.20944   1.00
C5       -0.00013   0.60887    0.18902   1.00
H2       0.04114    0.60529    0.19713   1.00
H2       0.00680    0.60407    0.17249   1.00
C5       -0.07043   0.55233    0.19609   1.00
H2       -0.11189   0.55589    0.18816   1.00
H2       -0.07650   0.55565    0.21273   1.00
H2       -0.07648   0.50150    0.19269   1.00
C5       0.05658    0.81062    0.25093   1.00
C5       0.32140    0.75663    0.21267   1.00
H2       0.08222    0.85893    0.24212   1.00
H2       0.08314    0.81897    0.26581   1.00
H2       0.29830    0.75492    0.19757   1.00
H2       0.29328    0.70405    0.21922   1.00
H2       0.41426    0.69832    0.22237   1.00
H2       -0.00973   0.89121    0.24885   1.00
H2       0.01100    0.87977    0.27466   1.00
C2       0.06371    0.88473    0.17894   1.00
C3       0.10776    0.92665    0.19444   1.00
O2       0.10801    0.98542    0.20011   1.00
C3       0.05436    0.81850    0.17650   1.00
H1       0.02236    0.78581    0.16445   1.00
C3a      0.13969    0.90122    0.20733   1.00
H1       0.17016    0.93250    0.21984   1.00
C3b      0.08445    0.79260    0.18974   1.00
C4       0.12739    0.83394    0.20534   1.00
O_3      0.05550    0.75645    0.24004   1.00
C5       0.16493    1.04301    0.19168   1.00
H2       0.21371    1.04682    0.19682   1.00
C5       0.16216    1.10580    0.19892   1.00
H2       0.16314    1.04094    0.17478   1.00
H2       0.18223    1.11779    0.21470   1.00
H2       0.10743    1.09141    0.19973   1.00
C5       0.20202    1.16828    0.18503   1.00
H2       0.25511    1.17859    0.18311   1.00
H2       0.20365    1.21428    0.19167   1.00
H2       0.17718    1.16010    0.16983   1.00
C5       -0.01708   0.79187    0.25474   1.00
H2       -0.03911   0.75075    0.26638   1.00
H2       -0.04649   0.77002    0.24049   1.00
C5       -0.02292   0.85385    0.26148   1.00
H2       -0.07618   0.83705    0.26614   1.00
C5       1.04339    0.60297    0.52969   1.00
H2       1.08501    0.65618    0.53224   1.00
H2       0.99553    0.60522    0.52915   1.00
C5       1.05510    0.57667    0.50927   1.00
H2       1.03682    0.59495    0.49635   1.00
H2       1.02742    0.51991    0.50919   1.00
O_3      0.92104    0.38725    0.61337   1.00
C4       1.01780    0.52739    0.61451   1.00
C3c      1.01560    0.55299    0.59530   1.00
H1       0.96970    0.55232    0.59041   1.00
C3d      1.07843    0.52963    0.62070   1.00
C3       1.07182    0.57884    0.58202   1.00
O2       1.06887    0.61054    0.56455   1.00
C3       1.13404    0.55413    0.60736   1.00
H1       1.17860    0.55261    0.61249   1.00
C2       1.13243    0.57953    0.58779   1.00
C5       0.94349    0.34710    0.62351   1.00
H2       0.90673    0.31390    0.63536   1.00
H2       0.99397    0.37971    0.63090   1.00
C5       0.95043    0.30188    0.60778   1.00
H2       0.98568    0.33497    0.59564   1.00
H2       0.89962    0.26911    0.60064   1.00
C5       0.97706    0.25806    0.61744   1.00
H2       0.94235    0.22524    0.62967   1.00
H2       1.02882    0.29072    0.62396   1.00
H2       0.98036    0.22428    0.60580   1.00
C5       1.10053    0.54876    0.65455   1.00
C5       1.04361    0.56308    0.54841   1.00
H2       1.06216    0.56526    0.65658   1.00
H2       1.15126    0.59472    0.65160   1.00
H2       0.99080    0.52136    0.55189   1.00
H2       1.07546    0.53885    0.54558   1.00
H2       1.11057    0.59628    0.50652   1.00
H2       1.05657    0.55343    0.69536   1.00
H2       1.14765    0.60957    0.69175   1.00
C2       0.84606    0.44112    0.65464   1.00
C3       0.89197    0.51210    0.65473   1.00
O2       0.89252    0.55170    0.67072   1.00
C3       0.85650    0.40048    0.64040   1.00
H1       0.82128    0.34624    0.63959   1.00
C3a      0.94756    0.54034    0.64114   1.00
H1       0.98441    0.59415    0.64218   1.00
C3b      0.91305    0.42839    0.62735   1.00
C4       0.95922    0.49880    0.62767   1.00
O_3      1.08150    0.50039    0.63881   1.00
C5       0.85855    0.58729    0.66526   1.00
H2       0.88339    0.62121    0.65192   1.00
C5       0.86239    0.63065    0.68356   1.00
H2       0.80409    0.55123    0.66148   1.00
H2       0.91373    0.67731    0.68379   1.00
H2       0.85893    0.60113    0.69747   1.00
C5       0.80600    0.64992    0.68350   1.00
H2       0.80680    0.67452    0.66884   1.00
H2       0.81386    0.68603    0.69605   1.00
H2       0.75448    0.60414    0.68587   1.00
C5       1.10447    0.51483    0.67404   1.00
H2       1.15048    0.50909    0.67331   1.00
H2       1.05932    0.46245    0.67464   1.00
C5       1.10635    0.55543    0.69300   1.00
H2       1.11637    0.53322    0.70670   1.00
C5       0.56741    -0.04619   0.53065   1.00
H2       0.57692    -0.08897   0.53366   1.00
H2       0.61837    0.00068    0.53047   1.00
C5       0.53207    -0.05682   0.50980   1.00
H2       0.57008    -0.03964   0.49727   1.00
H2       0.50461    -0.02759   0.50911   1.00
O_3      0.47075    0.08226    0.61208   1.00
C4       0.50954    -0.01781   0.61452   1.00
C3c      0.53910    -0.01671   0.59569   1.00
H1       0.58572    0.02832    0.59112   1.00
C3d      0.44933    -0.07735   0.62031   1.00
C3       0.50878    -0.07289   0.58240   1.00
O2       0.54487    -0.07127   0.56541   1.00
C3       0.41831    -0.13289   0.60695   1.00
H1       0.37089    -0.17651   0.61175   1.00
C2       0.44711    -0.13235   0.58776   1.00
C5       0.40738    0.06177    0.62149   1.00
H2       0.41087    0.09913    0.63312   1.00
H2       0.38714    0.01110    0.62899   1.00
C5       0.35782    0.05655    0.60510   1.00
H2       0.35579    0.02067    0.59319   1.00
H2       0.37822    0.10755    0.59785   1.00
C5       0.28664    0.03208    0.61395   1.00
H2       0.28838    0.06742    0.62596   1.00
H2       0.26524    -0.01986   0.62057   1.00
H2       0.25152    0.03002    0.60183   1.00
C5       0.44169    -0.09953   0.65426   1.00
C5       0.52591    -0.04483   0.54879   1.00
H2       0.49667    -0.06249   0.65678   1.00
H2       0.43546    -0.15102   0.65160   1.00
H2       0.53835    0.00854    0.55204   1.00
H2       0.47008    -0.07521   0.54541   1.00
H2       0.49517    -0.11199   0.50695   1.00
H2       0.48627    -0.05635   0.69539   1.00
H2       0.44904    -0.14779   0.69195   1.00
C2       0.59508    0.15408    0.65459   1.00
C3       0.61795    0.10643    0.65536   1.00
O2       0.65435    0.10452    0.67188   1.00
C3       0.54627    0.14525    0.63972   1.00
H1       0.52904    0.18180    0.63839   1.00
C3a      0.59062    0.05077    0.64179   1.00
H1       0.60576    0.01264    0.64333   1.00
C3b      0.51760    0.08867    0.62668   1.00
C4       0.53960    0.04078    0.62766   1.00
O_3      0.41545    -0.07918   0.63798   1.00
C5       0.72443    0.13651    0.66715   1.00
H2       0.73396    0.11082    0.65414   1.00
C5       0.76091    0.13125    0.68603   1.00
H2       0.74493    0.19124    0.66325   1.00
H2       0.75439    0.07917    0.68655   1.00
H2       0.73389    0.13582    0.69953   1.00
C5       0.83719    0.18587    0.68662   1.00
H2       0.86219    0.18409    0.67231   1.00
H2       0.86313    0.17690    0.69962   1.00
H2       0.84446    0.23811    0.68871   1.00
C5       0.40216    -0.10204   0.67322   1.00
H2       0.34980    -0.14698   0.67210   1.00
H2       0.39668    -0.05581   0.67340   1.00
C5       0.43785    -0.10527   0.69273   1.00
H2       0.40430    -0.11421   0.70604   1.00
C5       0.38679    0.43288    0.53061   1.00
H2       0.33446    0.42329    0.53360   1.00
H2       0.38277    0.38195    0.53042   1.00
C5       0.41156    0.46832    0.50977   1.00
H2       0.39083    0.43036    0.49723   1.00
H2       0.46826    0.49585    0.50911   1.00
O_3      0.61155    0.52942    0.61213   1.00
C4       0.47263    0.49045    0.61452   1.00
C3c      0.44428    0.46096    0.59568   1.00
H1       0.44279    0.41440    0.59109   1.00
C3d      0.47320    0.55060    0.62033   1.00
C3       0.41843    0.49129    0.58238   1.00
O2       0.38406    0.45525    0.56537   1.00
C3       0.44869    0.58163    0.60696   1.00
H1       0.45240    0.62900    0.61178   1.00
C2       0.42053    0.55289    0.58776   1.00
C5       0.65433    0.59277    0.62157   1.00
H2       0.68817    0.58927    0.63321   1.00
H2       0.62382    0.61292    0.62906   1.00
C5       0.69870    0.64243    0.60520   1.00
H2       0.66489    0.64447    0.59328   1.00
H2       0.72939    0.62211    0.59796   1.00
C5       0.74531    0.71358    0.61408   1.00
H2       0.77888    0.71184    0.62610   1.00
H2       0.71469    0.73490    0.62070   1.00
H2       0.77840    0.74878    0.60198   1.00
C5       0.45848    0.55807    0.65427   1.00
C5       0.42954    0.47433    0.54878   1.00
H2       0.44060    0.50309    0.65677   1.00
H2       0.41320    0.56424    0.65161   1.00
H2       0.47049    0.46194    0.55204   1.00
H2       0.45495    0.53017    0.54542   1.00
H2       0.39325    0.50518    0.50693   1.00
H2       0.45696    0.51333    0.69539   1.00
H2       0.40267    0.55047    0.69195   1.00
C2       0.55898    0.40492    0.65459   1.00
C3       0.48845    0.38197    0.65533   1.00
O2       0.45008    0.34546    0.67184   1.00
C3       0.59900    0.45382    0.63974   1.00
H1       0.65279    0.47112    0.63844   1.00
C3a      0.46011    0.40929    0.64176   1.00
H1       0.40683    0.39409    0.64329   1.00
C3b      0.57109    0.48249    0.62670   1.00
C4       0.50118    0.46040    0.62766   1.00
O_3      0.50514    0.58442    0.63801   1.00
C5       0.41208    0.27540    0.66708   1.00
H2       0.37691    0.26589    0.65405   1.00
C5       0.37028    0.23880    0.68593   1.00
H2       0.44639    0.25498    0.66318   1.00
H2       0.32468    0.24526    0.68645   1.00
H2       0.40179    0.26579    0.69945   1.00
C5       0.34871    0.16255    0.68650   1.00
H2       0.32202    0.13759    0.67218   1.00
H2       0.31375    0.13651    0.69948   1.00
H2       0.39371    0.15534    0.68860   1.00
C5       0.49538    0.59754    0.67326   1.00
H2       0.50275    0.64988    0.67215   1.00
H2       0.54712    0.60308    0.67345   1.00
C5       0.45640    0.56173    0.69274   1.00
H2       0.48093    0.59524    0.70607   1.00
C5       0.31470    -0.30710   0.13042   1.00
H2       0.27180    -0.31568   0.12036   1.00
H2       0.29931    -0.30133   0.14596   1.00
C5       0.32516    -0.36954   0.12939   1.00
H2       0.28814    -0.41129   0.13940   1.00
H2       0.37792    -0.35468   0.13420   1.00
O_3      0.59472    0.02120    0.13544   1.00
C4       0.47280    -0.01719   0.11428   1.00
C3c      0.42593    -0.08311   0.12109   1.00
H1       0.40979    -0.09104   0.13676   1.00
C3d      0.49242    -0.00781   0.09372   1.00
C3       0.39995    -0.13974   0.10796   1.00
O2       0.34818    -0.20109   0.11505   1.00
C3       0.46765    -0.06427   0.08071   1.00
H1       0.48600    -0.05492   0.06525   1.00
C2       0.42079    -0.13140   0.08740   1.00
C5       0.65318    0.05740    0.12317   1.00
H2       0.69057    0.10759    0.12989   1.00
H2       0.63922    0.06667    0.10774   1.00
C5       0.68710    0.01430    0.12126   1.00
H2       0.64915    -0.03656   0.11508   1.00
H2       0.70139    0.00590    0.13673   1.00
C5       0.75006    0.04895    0.10750   1.00
H2       0.78797    0.09997    0.11351   1.00
H2       0.73551    0.05521    0.09186   1.00
H2       0.77503    0.01742    0.10665   1.00
C5       0.51178    0.09340    0.08047   1.00
C5       0.37568    -0.23977   0.12334   1.00
H2       0.48636    0.10318    0.09342   1.00
H2       0.47343    0.06703    0.06822   1.00
H2       0.40953    -0.21216   0.13644   1.00
H2       0.40679    -0.24958   0.11210   1.00
H2       0.31612    -0.39115   0.11370   1.00
H2       0.53618    0.23047    0.08571   1.00
H2       0.49692    0.19344    0.06145   1.00
C2       0.55945    0.15576    0.15395   1.00
C3       0.49640    0.13527    0.14433   1.00
O2       0.47063    0.17901    0.14339   1.00
C3       0.59093    0.11597    0.15092   1.00
H1       0.63832    0.12927    0.15848   1.00
C3a      0.46743    0.07730    0.13164   1.00
H1       0.42114    0.06455    0.12348   1.00
C3b      0.56308    0.05963    0.13778   1.00
C4       0.50094    0.03994    0.12799   1.00
O_3      0.54226    0.05512    0.08662   1.00
C5       0.41867    0.16053    0.15797   1.00
H2       0.37592    0.10742    0.15543   1.00
C5       0.39210    0.21047    0.15573   1.00
H2       0.43885    0.16414    0.17361   1.00
H2       0.35634    0.19404    0.14262   1.00
H2       0.43633    0.26106    0.15163   1.00
C5       0.35695    0.21602    0.17509   1.00
H2       0.31648    0.16437    0.17986   1.00
H2       0.33335    0.24821    0.17234   1.00
H2       0.39433    0.24064    0.18774   1.00
C5       0.56819    0.16146    0.07246   1.00
H2       0.58553    0.15259    0.05754   1.00
H2       0.61245    0.18057    0.08300   1.00
C5       0.54469    0.21433    0.07050   1.00
H2       0.58450    0.26068    0.06267   1.00
C5       1.08303    0.38236    0.04386   1.00
H2       1.08860    0.42357    0.03353   1.00
H2       1.03028    0.33940    0.04157   1.00
C5       1.13557    0.36053    0.03804   1.00
H2       1.11693    0.32450    0.02499   1.00
H2       1.14489    0.33542    0.05118   1.00
O_3      1.01051    0.40272    0.14536   1.00
C4       1.01725    0.49123    0.11431   1.00
C3c      1.01764    0.45963    0.09603   1.00
H1       0.97365    0.41159    0.09182   1.00
C3d      1.07470    0.55429    0.11936   1.00
C3       1.07474    0.48870    0.08306   1.00
O2       1.06827    0.45922    0.06433   1.00
C3       1.13213    0.58272    0.10668   1.00
H1       1.17592    0.62993    0.11154   1.00
C2       1.13368    0.55106    0.08824   1.00
C5       1.05172    0.43784    0.16219   1.00
H2       1.02226    0.42358    0.17665   1.00
H2       1.07594    0.49416    0.16020   1.00
C5       1.10716    0.41892    0.16381   1.00
H2       1.13538    0.43139    0.14915   1.00
H2       1.08242    0.36269    0.16598   1.00
C5       1.15594    0.45693    0.18138   1.00
H2       1.12802    0.44508    0.19605   1.00
H2       1.18244    0.51302    0.17888   1.00
H2       1.19520    0.44132    0.18260   1.00
C5       1.04937    0.62673    0.13627   1.00
C5       1.09087    0.41130    0.06531   1.00
H2       0.99432    0.59631    0.13233   1.00
H2       1.07567    0.66731    0.12458   1.00
H2       1.05884    0.36976    0.07621   1.00
H2       1.14506    0.43466    0.07046   1.00
H2       1.18496    0.40531    0.03312   1.00
H2       0.95518    0.65170    0.15911   1.00
H2       1.01879    0.72689    0.14569   1.00
C2       0.84831    0.40166    0.15545   1.00
C3       0.84888    0.44300    0.13933   1.00
O2       0.80514    0.46885    0.13948   1.00
C3       0.90281    0.38818    0.15695   1.00
H1       0.90300    0.35531    0.16880   1.00
C3a      0.90400    0.47106    0.12557   1.00
H1       0.90561    0.50573    0.11401   1.00
C3b      0.95860    0.41793    0.14363   1.00
C4       0.95962    0.45986    0.12781   1.00
O_3      1.07892    0.58490    0.13789   1.00
C5       0.74965    0.43083    0.12633   1.00
H2       0.76729    0.43228    0.11042   1.00
C5       0.70440    0.46323    0.12708   1.00
H2       0.71965    0.37660    0.13129   1.00
H2       0.72749    0.50930    0.11721   1.00
H2       0.70623    0.48154    0.14288   1.00
C5       0.63017    0.41371    0.12065   1.00
H2       0.62965    0.39183    0.10552   1.00
H2       0.60039    0.44061    0.11975   1.00
H2       0.60351    0.37155    0.13190   1.00
C5       1.05631    0.66020    0.15682   1.00
H2       1.11082    0.69951    0.15914   1.00
H2       1.04299    0.62081    0.16880   1.00
C5       1.01016    0.69188    0.15861   1.00
H2       1.02174    0.72182    0.17288   1.00
C5       0.60011    0.66470    0.03715   1.00
H2       0.55298    0.62850    0.02890   1.00
H2       0.63734    0.64733    0.03424   1.00
C5       0.62725    0.73757    0.02873   1.00
H2       0.65684    0.74524    0.01453   1.00
H2       0.66067    0.77599    0.04016   1.00
O_3      0.61455    0.61312    0.14069   1.00
C4       0.50869    0.52603    0.11435   1.00
C3c      0.53377    0.54750    0.09463   1.00
H1       0.57661    0.54319    0.08931   1.00
C3d      0.45221    0.53118    0.12089   1.00
C3       0.50489    0.57560    0.08162   1.00
O2       0.52664    0.58768    0.06178   1.00
C3       0.42416    0.56035    0.10811   1.00
H1       0.38245    0.56547    0.11405   1.00
C2       0.44937    0.58300    0.08821   1.00
C5       0.59053    0.63171    0.15792   1.00
H2       0.60812    0.61986    0.17236   1.00
H2       0.53367    0.60494    0.15814   1.00
C5       0.61830    0.70816    0.15691   1.00
H2       0.60234    0.72025    0.14223   1.00
H2       0.67508    0.73439    0.15690   1.00
C5       0.59255    0.73242    0.17480   1.00
H2       0.60790    0.72008    0.18951   1.00
H2       0.53600    0.70804    0.17442   1.00
H2       0.61457    0.78862    0.17405   1.00
C5       0.38041    0.44551    0.14207   1.00
C5       0.58031    0.65573    0.05962   1.00
H2       0.40345    0.41356    0.13824   1.00
H2       0.33602    0.43116    0.13182   1.00
H2       0.62462    0.66457    0.06920   1.00
H2       0.56511    0.69374    0.06432   1.00
H2       0.58446    0.74665    0.02471   1.00
H2       0.35215    0.33313    0.16872   1.00
H2       0.27551    0.32577    0.15743   1.00
C2       0.59912    0.44732    0.15539   1.00
C3       0.54862    0.40324    0.14157   1.00
O2       0.51588    0.33355    0.14434   1.00
C3       0.62100    0.51776    0.15458   1.00
H1       0.66081    0.55308    0.16460   1.00
C3a      0.52018    0.42983    0.12778   1.00
H1       0.47886    0.39490    0.11809   1.00
C3b      0.59108    0.54372    0.14129   1.00
C4       0.54016    0.49970    0.12778   1.00
O_3      0.42887    0.51560    0.14065   1.00
C5       0.54274    0.30412    0.13101   1.00
H2       0.53642    0.31458    0.11484   1.00
C5       0.50319    0.22710    0.13476   1.00
H2       0.59798    0.32415    0.13402   1.00
H2       0.45343    0.20513    0.12669   1.00
H2       0.49126    0.21908    0.15127   1.00
C5       0.54268    0.19129    0.12804   1.00
H2       0.55884    0.20426    0.11197   1.00
H2       0.51019    0.13492    0.12941   1.00
H2       0.58849    0.20653    0.13779   1.00
C5       0.35533    0.43106    0.16391   1.00
H2       0.32217    0.45363    0.16661   1.00
H2       0.40029    0.45814    0.17412   1.00
C5       0.31689    0.35420    0.16867   1.00
H2       0.29332    0.34517    0.18396   1.00
C5       0.35929    0.66110    0.70266   1.00
H2       0.34874    0.61604    0.71199   1.00
H2       0.36429    0.64761    0.68681   1.00
C5       0.29894    0.67464    0.70447   1.00
H2       0.25652    0.64043    0.69417   1.00
H2       0.31604    0.72862    0.70051   1.00
O_3      0.69300    0.93229    0.69984   1.00
C4       0.64944    0.80611    0.71905   1.00
C3c      0.58296    0.76248    0.71199   1.00
H1       0.57457    0.74890    0.69611   1.00
C3d      0.65937    0.82238    0.73986   1.00
C3       0.52638    0.73653    0.72513   1.00
O2       0.46412    0.68772    0.71766   1.00
C3       0.60301    0.79768    0.75291   1.00
H1       0.61289    0.81349    0.76860   1.00
C2       0.53536    0.75410    0.74598   1.00
C5       0.73103    0.98831    0.71284   1.00
H2       0.78184    1.02519    0.70637   1.00
H2       0.73926    0.97110    0.72790   1.00
C5       0.69066    1.02475    0.71577   1.00
H2       0.63918    0.98740    0.72171   1.00
H2       0.68331    1.04225    0.70067   1.00
C5       0.72739    1.08520    0.73036   1.00
H2       0.77903    1.12246    0.72460   1.00
H2       0.73265    1.06750    0.74565   1.00
H2       0.69788    1.11210    0.73197   1.00
C5       0.75885    0.83515    0.75251   1.00
C5       0.42784    0.71904    0.71025   1.00
H2       0.76724    0.81078    0.73902   1.00
H2       0.73116    0.79524    0.76428   1.00
H2       0.45651    0.75442    0.69754   1.00
H2       0.41969    0.74949    0.72214   1.00
H2       0.27729    0.66390    0.72016   1.00
H2       0.89368    0.85432    0.74648   1.00
H2       0.85546    0.81206    0.77030   1.00
C2       0.82259    0.89274    0.67946   1.00
C3       0.79945    0.82773    0.68808   1.00
O2       0.84082    0.79913    0.68813   1.00
C3       0.78531    0.92634    0.68343   1.00
H1       0.80066    0.97536    0.67664   1.00
C3a      0.74142    0.79886    0.70074   1.00
H1       0.72667    0.75085    0.70815   1.00
C3b      0.72893    0.89848    0.69655   1.00
C4       0.70662    0.83433    0.70536   1.00
O_3      0.72307    0.86914    0.74729   1.00
C5       0.82039    0.74927    0.67278   1.00
H2       0.76651    0.70773    0.67501   1.00
C5       0.86774    0.71934    0.67406   1.00
H2       0.82503    0.77226    0.65750   1.00
H2       0.84987    0.68147    0.68664   1.00
H2       0.91918    0.76145    0.67851   1.00
C5       0.87160    0.68629    0.65402   1.00
H2       0.81932    0.64818    0.64899   1.00
H2       0.90180    0.66017    0.65603   1.00
H2       0.89753    0.72535    0.64186   1.00
C5       0.82786    0.88822    0.76094   1.00
H2       0.81994    0.90396    0.77624   1.00
H2       0.84875    0.93424    0.75105   1.00
C5       0.87823    0.86134    0.76196   1.00
H2       0.92529    0.89853    0.77010   1.00
C5       0.42743    0.58862    0.72072   1.00
H2       0.40904    0.62575    0.71993   1.00
H2       0.44048    0.58254    0.70491   1.00
C5       0.49144    0.61753    0.73441   1.00
H2       0.53786    0.65414    0.72584   1.00
H2       0.49848    0.57528    0.74019   1.00
O_3      0.18397    0.24347    0.72424   1.00
C4       0.15684    0.35098    0.71889   1.00
C3c      0.21998    0.40894    0.71456   1.00
H1       0.24677    0.41067    0.70080   1.00
C3d      0.12230    0.35014    0.73676   1.00
C3       0.24997    0.46490    0.72794   1.00
O2       0.30757    0.52298    0.72153   1.00
C3       0.15263    0.40523    0.75030   1.00
H1       0.12536    0.40127    0.76416   1.00
C2       0.21680    0.46394    0.74627   1.00
C5       0.14576    0.19924    0.74020   1.00
H2       0.11588    0.14507    0.73516   1.00
H2       0.10956    0.21396    0.74680   1.00
C5       0.19565    0.20468    0.75651   1.00
H2       0.22683    0.25912    0.76114   1.00
H2       0.23111    0.18926    0.74981   1.00
C5       0.15803    0.15982    0.77484   1.00
H2       0.12641    0.10544    0.77030   1.00
H2       0.12438    0.17669    0.78197   1.00
H2       0.19538    0.16330    0.78640   1.00
C5       0.00647    0.29366    0.73366   1.00
C5       0.36641    0.52195    0.72818   1.00
H2       0.00883    0.29315    0.71682   1.00
H2       0.00393    0.33956    0.73850   1.00
H2       0.36771    0.47734    0.72150   1.00
H2       0.36822    0.51790    0.74506   1.00
H2       0.48723    0.64650    0.74753   1.00
H2       -0.11640   0.20060    0.71208   1.00
H2       -0.12636   0.26197    0.72731   1.00
C2       0.06669    0.17615    0.67997   1.00
C3       0.05527    0.23108    0.67635   1.00
O2       0.00278    0.22275    0.66384   1.00
C3       0.11091    0.18204    0.69599   1.00
H1       0.12210    0.14165    0.69883   1.00
C3a      0.08641    0.28918    0.68896   1.00
H1       0.07408    0.32910    0.68672   1.00
C3b      0.14006    0.23893    0.70891   1.00
C4       0.12782    0.29304    0.70549   1.00
O_3      0.06256    0.29233    0.74248   1.00
C5       0.02848    0.25179    0.64464   1.00
H2       0.06601    0.30746    0.64591   1.00
C5       -0.03238   0.24151    0.63186   1.00
H2       0.05381    0.22626    0.63710   1.00
H2       -0.04544   0.28111    0.63622   1.00
H2       -0.07684   0.19140    0.63621   1.00
C5       -0.01895   0.24405    0.60886   1.00
H2       0.02863    0.29206    0.60504   1.00
H2       -0.06195   0.24216    0.60012   1.00
H2       -0.01435   0.19938    0.60381   1.00
C5       -0.05794   0.22994    0.74066   1.00
H2       -0.06641   0.23612    0.75697   1.00
H2       -0.04902   0.18591    0.73962   1.00
C5       -0.12047   0.21607    0.72786   1.00
H2       -0.16748   0.17368    0.73467   1.00
C5       0.17024    0.57631    0.71877   1.00
H2       0.22612    0.59642    0.71850   1.00
H2       0.15309    0.56465    0.70275   1.00
C5       0.13526    0.51068    0.73179   1.00
H2       0.12797    0.46577    0.72287   1.00
H2       0.08472    0.50136    0.73717   1.00
O_3      0.05756    0.81117    0.72308   1.00
C4       0.19413    0.84319    0.71890   1.00
C3c      0.19166    0.78154    0.71414   1.00
H1       0.16875    0.75595    0.70004   1.00
C3d      0.22507    0.87621    0.73722   1.00
C3       0.21761    0.75151    0.72751   1.00
O2       0.22093    0.69575    0.72074   1.00
C3       0.24979    0.84578    0.75074   1.00
H1       0.27089    0.87177    0.76493   1.00
C2       0.24702    0.78309    0.74626   1.00
C5       0.04819    0.84661    0.73924   1.00
H2       0.02299    0.87564    0.73421   1.00
H2       0.09789    0.88317    0.74643   1.00
C5       0.00289    0.79420    0.75489   1.00
H2       0.02715    0.76390    0.75949   1.00
H2       -0.04679   0.75837    0.74759   1.00
C5       -0.00797   0.82875    0.77339   1.00
H2       -0.03173   0.85949    0.76889   1.00
H2       0.04136    0.86274    0.78110   1.00
H2       -0.04240   0.78957    0.78446   1.00
C5       0.28159    0.99233    0.73529   1.00
C5       0.16140    0.63512    0.72657   1.00
H2       0.28072    0.99185    0.71842   1.00
H2       0.33019    0.99598    0.74050   1.00
H2       0.11553    0.63298    0.71955   1.00
H2       0.15354    0.63119    0.74338   1.00
H2       0.16733    0.51447    0.74517   1.00
H2       0.30995    1.11643    0.71472   1.00
H2       0.38038    1.12699    0.73052   1.00
C2       0.10926    0.93311    0.67996   1.00
C3       0.17676    0.94709    0.67690   1.00
O2       0.22122    1.00159    0.66506   1.00
C3       0.07003    0.88651    0.69541   1.00
H1       0.01764    0.87338    0.69779   1.00
C3a      0.20384    0.91604    0.68950   1.00
H1       0.25679    0.93025    0.68772   1.00
C3b      0.09779    0.85741    0.70834   1.00
C4       0.16523    0.87217    0.70548   1.00
O_3      0.22419    0.93424    0.74333   1.00
C5       0.22778    0.97870    0.64574   1.00
H2       0.24745    0.94238    0.64689   1.00
C5       0.27851    1.04169    0.63372   1.00
H2       0.17785    0.95291    0.63766   1.00
H2       0.33108    1.05587    0.63855   1.00
H2       0.27064    1.08461    0.63831   1.00
C5       0.27060    1.03077    0.61057   1.00
H2       0.27321    0.98454    0.60646   1.00
H2       0.31186    1.07542    0.60241   1.00
H2       0.22123    1.02508    0.60513   1.00
C5       0.27914    1.05475    0.74269   1.00
H2       0.29183    1.06170    0.75916   1.00
H2       0.22573    1.04423    0.74121   1.00
C5       0.32785    1.11930    0.73066   1.00
H2       0.33005    1.16481    0.73779   1.00
