data_IRMOF10_interpen_symm_ligand11lp_label_i_1.

_audit_creation_method             'generated by an auxiliary program of Tobunporous'

_symmetry_space_group_name_H-M     'P 1'
_symmetry_Int_Tables_number        1
_symmetry_cell_setting             triclinic

_cell_length_a                    22.6523
_cell_length_b                    22.6523
_cell_length_c                    65.9502
_cell_angle_alpha                 90.0000
_cell_angle_beta                  90.0000
_cell_angle_gamma                 120.0000

loop_
_atom_site_label
_atom_site_fract_x
_atom_site_fract_y
_atom_site_fract_z
_atom_site_occupancy
O1       0.00000    -0.00000   0.62500   1.00
Zn1      0.00000    -0.00000   0.59589   1.00
Zn1      0.94848    1.04288    0.63392   1.00
Zn1      0.09439    0.05152    0.63392   1.00
Zn1      -0.04288   0.90561    0.63392   1.00
O2       0.93860    0.02610    0.58587   1.00
O2       0.08750    0.06140    0.58587   1.00
O2       -0.02610   0.91250    0.58587   1.00
O2       0.91305    0.07161    0.61181   1.00
O2       0.00462    0.12022    0.65110   1.00
O2       0.87413    0.98074    0.65071   1.00
O2       0.15856    0.08695    0.61181   1.00
O2       0.10660    0.12587    0.65071   1.00
O2       0.11559    0.99538    0.65110   1.00
O2       -0.07161   0.84144    0.61181   1.00
O2       0.87978    0.88441    0.65110   1.00
O2       0.01926    0.89340    0.65071   1.00
C1       0.91390    0.06020    0.59358   1.00
C1       0.14630    0.08610    0.59358   1.00
C1       -0.06020   0.85370    0.59358   1.00
C1       0.06663    0.14397    0.65673   1.00
C1       0.85603    0.92267    0.65673   1.00
C1       0.07733    0.93337    0.65673   1.00
O1       -0.00000   0.00000    0.87500   1.00
Zn1      -0.00000   0.00000    0.90411   1.00
Zn1      1.04288    0.94848    0.86608   1.00
Zn1      0.05152    0.09439    0.86608   1.00
Zn1      0.90561    -0.04288   0.86608   1.00
O2       0.02610    0.93860    0.91413   1.00
O2       0.06140    0.08750    0.91413   1.00
O2       0.91250    -0.02610   0.91413   1.00
O2       0.07161    0.91305    0.88819   1.00
O2       0.12022    0.00462    0.84890   1.00
O2       0.98074    0.87413    0.84929   1.00
O2       0.08695    0.15856    0.88819   1.00
O2       0.12587    0.10660    0.84929   1.00
O2       0.99538    0.11559    0.84890   1.00
O2       0.84144    -0.07161   0.88819   1.00
O2       0.88441    0.87978    0.84890   1.00
O2       0.89340    0.01926    0.84929   1.00
C1       0.06020    0.91390    0.90642   1.00
C1       0.08610    0.14630    0.90642   1.00
C1       0.85370    -0.06020   0.90642   1.00
C1       0.14397    0.06663    0.84327   1.00
C1       0.92267    0.85603    0.84327   1.00
C1       0.93337    0.07733    0.84327   1.00
O1       0.00000    0.00000    0.37500   1.00
Zn1      0.00000    0.00000    0.40411   1.00
Zn1      0.05152    -0.04288   0.36608   1.00
Zn1      0.90561    0.94848    0.36608   1.00
Zn1      1.04288    0.09439    0.36608   1.00
O2       0.06140    -0.02610   0.41413   1.00
O2       0.91250    0.93860    0.41413   1.00
O2       0.02610    0.08750    0.41413   1.00
O2       0.08695    -0.07161   0.38819   1.00
O2       0.99538    0.87978    0.34890   1.00
O2       0.12587    0.01926    0.34929   1.00
O2       0.84144    0.91305    0.38819   1.00
O2       0.89340    0.87413    0.34929   1.00
O2       0.88441    0.00462    0.34890   1.00
O2       0.07161    0.15856    0.38819   1.00
O2       0.12022    0.11559    0.34890   1.00
O2       0.98074    0.10660    0.34929   1.00
C1       0.08610    -0.06020   0.40642   1.00
C1       0.85370    0.91390    0.40642   1.00
C1       0.06020    0.14630    0.40642   1.00
C1       0.93337    0.85603    0.34327   1.00
C1       0.14397    0.07733    0.34327   1.00
C1       0.92267    0.06663    0.34327   1.00
O1       0.00000    0.00000    0.12500   1.00
Zn1      0.00000    0.00000    0.09589   1.00
Zn1      -0.04288   0.05152    0.13392   1.00
Zn1      0.94848    0.90561    0.13392   1.00
Zn1      0.09439    1.04288    0.13392   1.00
O2       -0.02610   0.06140    0.08587   1.00
O2       0.93860    0.91250    0.08587   1.00
O2       0.08750    0.02610    0.08587   1.00
O2       -0.07161   0.08695    0.11181   1.00
O2       0.87978    0.99538    0.15110   1.00
O2       0.01926    0.12587    0.15071   1.00
O2       0.91305    0.84144    0.11181   1.00
O2       0.87413    0.89340    0.15071   1.00
O2       0.00462    0.88441    0.15110   1.00
O2       0.15856    0.07161    0.11181   1.00
O2       0.11559    0.12022    0.15110   1.00
O2       0.10660    0.98074    0.15071   1.00
C1       -0.06020   0.08610    0.09358   1.00
C1       0.91390    0.85370    0.09358   1.00
C1       0.14630    0.06020    0.09358   1.00
C1       0.85603    0.93337    0.15673   1.00
C1       0.07733    0.14397    0.15673   1.00
C1       0.06663    0.92267    0.15673   1.00
O1       0.66667    0.33333    0.95833   1.00
Zn1      0.66667    0.33333    0.92922   1.00
Zn1      0.61515    0.37621    0.96725   1.00
Zn1      0.76106    0.38485    0.96725   1.00
Zn1      -0.37621   0.23894    0.96725   1.00
O2       0.60527    0.35943    0.91920   1.00
O2       0.75417    0.39473    0.91920   1.00
O2       0.64057    0.24583    0.91920   1.00
O2       0.57972    0.40494    0.94514   1.00
O2       0.67129    0.45355    0.98443   1.00
O2       0.54080    0.31407    0.98404   1.00
O2       0.82523    0.42028    0.94514   1.00
O2       0.77327    0.45920    0.98404   1.00
O2       -0.21774   0.32871    0.98443   1.00
O2       0.59506    0.17477    0.94514   1.00
O2       0.54645    0.21774    0.98443   1.00
O2       -0.31407   0.22673    0.98404   1.00
C1       0.58057    0.39353    0.92691   1.00
C1       0.81297    0.41943    0.92691   1.00
C1       0.60647    0.18703    0.92691   1.00
C1       0.73330    0.47730    0.99006   1.00
C1       0.52270    0.25600    0.99006   1.00
C1       -0.25600   0.26670    0.99006   1.00
O1       0.66667    0.33333    0.20833   1.00
Zn1      0.66667    0.33333    0.23744   1.00
Zn1      0.70954    0.28182    0.19942   1.00
Zn1      0.71818    0.42773    0.19942   1.00
Zn1      0.57227    0.29046    0.19942   1.00
O2       0.69277    0.27193    0.24746   1.00
O2       0.72807    0.42083    0.24746   1.00
O2       0.57917    0.30723    0.24746   1.00
O2       0.73828    0.24638    0.22152   1.00
O2       0.78688    0.33796    0.18224   1.00
O2       0.64740    0.20747    0.18263   1.00
O2       0.75362    0.49189    0.22152   1.00
O2       0.79253    0.43994    0.18263   1.00
O2       0.66204    0.44893    0.18224   1.00
O2       0.50811    0.26172    0.22152   1.00
O2       0.55107    0.21312    0.18224   1.00
O2       0.56006    0.35260    0.18263   1.00
C1       0.72687    0.24723    0.23975   1.00
C1       0.75277    0.47963    0.23975   1.00
C1       0.52037    0.27313    0.23975   1.00
C1       0.81063    0.39997    0.17661   1.00
C1       0.58933    0.18937    0.17661   1.00
C1       0.60003    0.41067    0.17661   1.00
O1       0.66667    0.33333    0.70833   1.00
Zn1      0.66667    0.33333    0.73744   1.00
Zn1      0.71818    0.29046    0.69942   1.00
Zn1      0.57227    0.28182    0.69942   1.00
Zn1      0.70954    0.42773    0.69942   1.00
O2       0.72807    0.30723    0.74746   1.00
O2       0.57917    0.27193    0.74746   1.00
O2       0.69277    0.42083    0.74746   1.00
O2       0.75362    0.26172    0.72152   1.00
O2       0.66204    0.21312    0.68224   1.00
O2       0.79253    0.35260    0.68263   1.00
O2       0.50811    0.24638    0.72152   1.00
O2       0.56006    0.20747    0.68263   1.00
O2       0.55107    0.33796    0.68224   1.00
O2       0.73828    0.49189    0.72152   1.00
O2       0.78688    0.44893    0.68224   1.00
O2       0.64740    0.43994    0.68263   1.00
C1       0.75277    0.27313    0.73975   1.00
C1       0.52037    0.24723    0.73975   1.00
C1       0.72687    0.47963    0.73975   1.00
C1       0.60003    0.18937    0.67661   1.00
C1       0.81063    0.41067    0.67661   1.00
C1       0.58933    0.39997    0.67661   1.00
O1       0.66667    0.33333    0.45833   1.00
Zn1      0.66667    0.33333    0.42922   1.00
Zn1      -0.37621   0.38485    0.46725   1.00
Zn1      0.61515    0.23894    0.46725   1.00
Zn1      0.76106    0.37621    0.46725   1.00
O2       0.64057    0.39473    0.41920   1.00
O2       0.60527    0.24583    0.41920   1.00
O2       0.75417    0.35943    0.41920   1.00
O2       0.59506    0.42028    0.44514   1.00
O2       0.54645    0.32871    0.48443   1.00
O2       -0.31407   0.45920    0.48404   1.00
O2       0.57972    0.17477    0.44514   1.00
O2       0.54080    0.22673    0.48404   1.00
O2       0.67129    0.21774    0.48443   1.00
O2       0.82523    0.40494    0.44514   1.00
O2       -0.21774   0.45355    0.48443   1.00
O2       0.77327    0.31407    0.48404   1.00
C1       0.60647    0.41943    0.42691   1.00
C1       0.58057    0.18703    0.42691   1.00
C1       0.81297    0.39353    0.42691   1.00
C1       0.52270    0.26670    0.49006   1.00
C1       -0.25600   0.47730    0.49006   1.00
C1       0.73330    0.25600    0.49006   1.00
O1       0.33333    0.66667    0.29167   1.00
Zn1      0.33333    0.66667    0.26256   1.00
Zn1      0.28182    0.70954    0.30058   1.00
Zn1      0.42773    0.71818    0.30058   1.00
Zn1      0.29046    0.57227    0.30058   1.00
O2       0.27193    0.69277    0.25254   1.00
O2       0.42083    0.72807    0.25254   1.00
O2       0.30723    0.57917    0.25254   1.00
O2       0.24638    0.73828    0.27848   1.00
O2       0.33796    0.78688    0.31776   1.00
O2       0.20747    0.64740    0.31737   1.00
O2       0.49189    0.75362    0.27848   1.00
O2       0.43994    0.79253    0.31737   1.00
O2       0.44893    0.66204    0.31776   1.00
O2       0.26172    0.50811    0.27848   1.00
O2       0.21312    0.55107    0.31776   1.00
O2       0.35260    0.56006    0.31737   1.00
C1       0.24723    0.72687    0.26025   1.00
C1       0.47963    0.75277    0.26025   1.00
C1       0.27313    0.52037    0.26025   1.00
C1       0.39997    0.81063    0.32339   1.00
C1       0.18937    0.58933    0.32339   1.00
C1       0.41067    0.60003    0.32339   1.00
O1       0.33333    0.66667    0.54167   1.00
Zn1      0.33333    0.66667    0.57078   1.00
Zn1      0.37621    0.61515    0.53275   1.00
Zn1      0.38485    0.76106    0.53275   1.00
Zn1      0.23894    -0.37621   0.53275   1.00
O2       0.35943    0.60527    0.58080   1.00
O2       0.39473    0.75417    0.58080   1.00
O2       0.24583    0.64057    0.58080   1.00
O2       0.40494    0.57972    0.55486   1.00
O2       0.45355    0.67129    0.51557   1.00
O2       0.31407    0.54080    0.51596   1.00
O2       0.42028    0.82523    0.55486   1.00
O2       0.45920    0.77327    0.51596   1.00
O2       0.32871    -0.21774   0.51557   1.00
O2       0.17477    0.59506    0.55486   1.00
O2       0.21774    0.54645    0.51557   1.00
O2       0.22673    -0.31407   0.51596   1.00
C1       0.39353    0.58057    0.57309   1.00
C1       0.41943    0.81297    0.57309   1.00
C1       0.18703    0.60647    0.57309   1.00
C1       0.47730    0.73330    0.50994   1.00
C1       0.25600    0.52270    0.50994   1.00
C1       0.26670    -0.25600   0.50994   1.00
O1       0.33333    0.66667    0.04167   1.00
Zn1      0.33333    0.66667    0.07078   1.00
Zn1      0.38485    -0.37621   0.03275   1.00
Zn1      0.23894    0.61515    0.03275   1.00
Zn1      0.37621    0.76106    0.03275   1.00
O2       0.39473    0.64057    0.08080   1.00
O2       0.24583    0.60527    0.08080   1.00
O2       0.35943    0.75417    0.08080   1.00
O2       0.42028    0.59506    0.05486   1.00
O2       0.32871    0.54645    0.01557   1.00
O2       0.45920    -0.31407   0.01596   1.00
O2       0.17477    0.57972    0.05486   1.00
O2       0.22673    0.54080    0.01596   1.00
O2       0.21774    0.67129    0.01557   1.00
O2       0.40494    0.82523    0.05486   1.00
O2       0.45355    -0.21774   0.01557   1.00
O2       0.31407    0.77327    0.01596   1.00
C1       0.41943    0.60647    0.07309   1.00
C1       0.18703    0.58057    0.07309   1.00
C1       0.39353    0.81297    0.07309   1.00
C1       0.26670    0.52270    0.00994   1.00
C1       0.47730    -0.25600   0.00994   1.00
C1       0.25600    0.73330    0.00994   1.00
O1       0.33333    0.66667    0.79167   1.00
Zn1      0.33333    0.66667    0.76256   1.00
Zn1      0.29046    0.71818    0.80058   1.00
Zn1      0.28182    0.57227    0.80058   1.00
Zn1      0.42773    0.70954    0.80058   1.00
O2       0.30723    0.72807    0.75254   1.00
O2       0.27193    0.57917    0.75254   1.00
O2       0.42083    0.69277    0.75254   1.00
O2       0.26172    0.75362    0.77848   1.00
O2       0.21312    0.66204    0.81776   1.00
O2       0.35260    0.79253    0.81737   1.00
O2       0.24638    0.50811    0.77848   1.00
O2       0.20747    0.56006    0.81737   1.00
O2       0.33796    0.55107    0.81776   1.00
O2       0.49189    0.73828    0.77848   1.00
O2       0.44893    0.78688    0.81776   1.00
O2       0.43994    0.64740    0.81737   1.00
C1       0.27313    0.75277    0.76025   1.00
C1       0.24723    0.52037    0.76025   1.00
C1       0.47963    0.72687    0.76025   1.00
C1       0.18937    0.60003    0.82339   1.00
C1       0.41067    0.81063    0.82339   1.00
C1       0.39997    0.58933    0.82339   1.00
C5       0.11794    0.94840    0.55373   1.00
H2       0.09393    0.98053    0.55542   1.00
H2       0.13025    0.95000    0.53736   1.00
C5       0.18382    0.97869    0.56662   1.00
H2       0.22713    1.02152    0.55848   1.00
H2       0.19718    0.93860    0.56998   1.00
O_3      -0.09630   0.59685    0.54776   1.00
C4       -0.13872   0.69435    0.54880   1.00
C3c      -0.07979   0.75760    0.54537   1.00
H1       -0.05366   0.76750    0.53097   1.00
C3d      -0.17255   0.68285    0.56756   1.00
C3       -0.05312   0.80851    0.56044   1.00
O2       -0.00034   0.87186    0.55514   1.00
C3       -0.14540   0.73293    0.58273   1.00
H1       -0.17175   0.72088    0.59713   1.00
C2       -0.08544   0.79690    0.57960   1.00
C5       -0.12900   0.54547    0.56257   1.00
H2       -0.15462   0.49333    0.55584   1.00
H2       -0.16804   0.55202    0.57103   1.00
C5       -0.07480   0.55134    0.57734   1.00
H2       -0.04790   0.60405    0.58364   1.00
H2       -0.03646   0.54409    0.56876   1.00
C5       -0.10647   0.49865    0.59443   1.00
H2       -0.13383   0.44591    0.58823   1.00
H2       -0.14301   0.50732    0.60344   1.00
H2       -0.06591   0.50272    0.60481   1.00
C5       -0.28825   0.61665    0.56544   1.00
C5       0.06275    0.87630    0.55974   1.00
H2       -0.28803   0.62235    0.54868   1.00
H2       -0.29583   0.65698    0.57263   1.00
H2       0.06862    0.83763    0.55083   1.00
H2       0.06749    0.86693    0.57616   1.00
H2       0.17768    1.00030    0.58119   1.00
H2       -0.40947   0.52222    0.54343   1.00
H2       -0.42533   0.57224    0.56192   1.00
C2       -0.21791   0.53479    0.50444   1.00
C3       -0.23713   0.58525    0.50401   1.00
O2       -0.29319   0.57504    0.49294   1.00
C3       -0.16978   0.54044    0.51913   1.00
H1       -0.15268   0.50364    0.51953   1.00
C3a      -0.20961   0.63854    0.51839   1.00
H1       -0.22777   0.67454    0.51860   1.00
C3b      -0.14417   0.59225    0.53382   1.00
C4       -0.16413   0.64177    0.53357   1.00
O_3      -0.22772   0.61969    0.57225   1.00
C5       -0.27228   0.61189    0.47458   1.00
H2       -0.23931   0.66772    0.47741   1.00
C5       -0.33698   0.59889    0.46342   1.00
H2       -0.24352   0.59427    0.46500   1.00
H2       -0.35495   0.63220    0.47017   1.00
H2       -0.37716   0.54532    0.46665   1.00
C5       -0.32631   0.61100    0.44036   1.00
H2       -0.28252   0.66285    0.43745   1.00
H2       -0.37263   0.60667    0.43304   1.00
H2       -0.31673   0.57214    0.43296   1.00
C5       -0.34745   0.54700    0.57125   1.00
H2       -0.35486   0.54591    0.58798   1.00
H2       -0.33283   0.50789    0.56771   1.00
C5       -0.41346   0.53047    0.55995   1.00
H2       -0.45693   0.48283    0.56609   1.00
C5       0.13041    0.26761    0.57762   1.00
H2       0.08229    0.21950    0.57438   1.00
H2       0.13919    0.30131    0.56437   1.00
C5       0.12184    0.30037    0.59718   1.00
H2       0.09510    0.32930    0.59389   1.00
H2       0.17266    0.33566    0.60389   1.00
O_3      0.43633    0.27553    0.55804   1.00
C4       0.30538    0.16701    0.54872   1.00
C3c      0.26098    0.19301    0.55098   1.00
H1       0.26595    0.23330    0.54108   1.00
C3d      0.29740    0.11384    0.56159   1.00
C3       0.21036    0.16839    0.56614   1.00
O2       0.16362    0.19035    0.56585   1.00
C3       0.24790    0.09011    0.57695   1.00
H1       0.24528    0.05097    0.58692   1.00
C2       0.20307    0.11636    0.57960   1.00
C5       0.47561    0.25438    0.56925   1.00
H2       0.52557    0.26982    0.56188   1.00
H2       0.44780    0.19786    0.57122   1.00
C5       0.48904    0.28802    0.58998   1.00
H2       0.43915    0.27414    0.59711   1.00
H2       0.51737    0.34440    0.58784   1.00
C5       0.52959    0.26575    0.60347   1.00
H2       0.57927    0.27902    0.59638   1.00
H2       0.50031    0.20976    0.60619   1.00
H2       0.54020    0.29200    0.61839   1.00
C5       0.32105    0.03737    0.54650   1.00
C5       0.18583    0.24778    0.57862   1.00
H2       0.31976    0.05622    0.53102   1.00
H2       0.26934    -0.00604   0.55018   1.00
H2       0.23538    0.29059    0.57306   1.00
H2       0.19367    0.23694    0.59465   1.00
H2       0.08991    0.26067    0.60863   1.00
H2       0.38052    -0.00037   0.51379   1.00
H2       0.31052    -0.07371   0.52617   1.00
C2       0.46516    0.24498    0.50443   1.00
C3       0.39893    0.19298    0.49911   1.00
O2       0.38848    0.15524    0.48168   1.00
C3       0.47610    0.27246    0.52426   1.00
H1       0.52578    0.31352    0.52864   1.00
C3a      0.34618    0.16863    0.51366   1.00
H1       0.29675    0.12617    0.50970   1.00
C3b      0.42408    0.24665    0.53888   1.00
C4       0.35854    0.19424    0.53366   1.00
O_3      0.34301    0.09005    0.56099   1.00
C5       0.36152    0.17803    0.46624   1.00
H2       0.31188    0.17316    0.47092   1.00
C5       0.35037    0.13314    0.44765   1.00
H2       0.39765    0.23234    0.46231   1.00
H2       0.30208    0.08389    0.44979   1.00
H2       0.39229    0.12091    0.44738   1.00
C5       0.34843    0.16725    0.42761   1.00
H2       0.31001    0.18396    0.42874   1.00
H2       0.33456    0.13104    0.41468   1.00
H2       0.39943    0.21210    0.42394   1.00
C5       0.37191    0.01201    0.54665   1.00
H2       0.36467    -0.01733   0.56088   1.00
H2       0.42430    0.05718    0.54721   1.00
C5       0.36423    -0.03182   0.52790   1.00
H2       0.39700    -0.05517   0.52956   1.00
C5       0.74675    0.05279    0.63156   1.00
H2       0.73878    0.00068    0.62937   1.00
H2       0.69576    0.04799    0.62973   1.00
C5       0.77475    0.07825    0.65315   1.00
H2       0.73271    0.05728    0.66449   1.00
H2       0.80141    0.13495    0.65366   1.00
O_3      0.86870    0.27597    0.54955   1.00
C4       0.83216    0.13752    0.54871   1.00
C3c      0.79651    0.10923    0.56683   1.00
H1       0.74836    0.10707    0.56949   1.00
C3d      0.89433    0.13895    0.54541   1.00
C3       0.82259    0.08428    0.58187   1.00
O2       0.78109    0.04988    0.59803   1.00
C3       0.92107    0.11534    0.56052   1.00
H1       0.97008    0.11970    0.55762   1.00
C2       0.88605    0.08725    0.57903   1.00
C5       0.93482    0.31927    0.54184   1.00
H2       0.93493    0.35259    0.52937   1.00
H2       0.95792    0.28920    0.53592   1.00
C5       0.97837    0.36433    0.55914   1.00
H2       0.97671    0.33101    0.57182   1.00
H2       0.95520    0.39456    0.56479   1.00
C5       1.05207    0.41155    0.55222   1.00
H2       1.05406    0.44464    0.53946   1.00
H2       1.07603    0.38142    0.54723   1.00
H2       1.08274    0.44513    0.56494   1.00
C5       0.91363    0.12392    0.51236   1.00
C5       0.79395    0.09556    0.61427   1.00
H2       0.85969    0.10527    0.50801   1.00
H2       0.91943    0.07915    0.51629   1.00
H2       0.78219    0.13594    0.60960   1.00
H2       0.84838    0.12171    0.61935   1.00
H2       0.81088    0.06072    0.65791   1.00
H2       0.88301    0.12104    0.46972   1.00
H2       0.91963    0.06784    0.47591   1.00
C2       0.75932    0.22116    0.50343   1.00
C3       0.73745    0.15083    0.50334   1.00
O2       0.70703    0.11192    0.48631   1.00
C3       0.80268    0.26187    0.51929   1.00
H1       0.81891    0.31553    0.52009   1.00
C3a      0.76046    0.12337    0.51858   1.00
H1       0.74639    0.07025    0.51764   1.00
C3b      0.82722    0.23485    0.53405   1.00
C4       0.80627    0.16514    0.53376   1.00
O_3      0.93387    0.17089    0.52854   1.00
C5       0.63574    0.07319    0.48899   1.00
H2       0.62216    0.03836    0.50232   1.00
C5       0.60609    0.03084    0.46970   1.00
H2       0.61357    0.10695    0.49123   1.00
H2       0.61326    -0.01430   0.47049   1.00
H2       0.63737    0.06231    0.45669   1.00
C5       0.53024    0.00822    0.46646   1.00
H2       0.50066    -0.01843   0.48025   1.00
H2       0.50906    -0.02709   0.45329   1.00
H2       0.52321    0.05270    0.46307   1.00
C5       0.95921    0.16086    0.49432   1.00
H2       1.01112    0.16902    0.49742   1.00
H2       0.96422    0.21226    0.49319   1.00
C5       0.93054    0.12131    0.47438   1.00
H2       0.96835    0.14596    0.46198   1.00
C5       0.68039    -0.11389   0.86414   1.00
H2       0.71633    -0.05804   0.86385   1.00
H2       0.62846    -0.12025   0.86419   1.00
C5       0.69091    -0.14692   0.84495   1.00
H2       0.66376    -0.14104   0.83171   1.00
H2       0.67138    -0.20217   0.84764   1.00
O_3      0.61551    -0.27918   0.95737   1.00
C4       0.69453    -0.13743   0.95126   1.00
C3c      0.68123    -0.12589   0.93128   1.00
H1       0.63050    -0.13698   0.92714   1.00
C3d      0.76121    -0.12172   0.95641   1.00
C3       0.73250    -0.10093   0.91632   1.00
O2       0.71789    -0.08309   0.89782   1.00
C3       0.81206    -0.09809   0.94145   1.00
H1       0.86182    -0.08904   0.94594   1.00
C2       0.79930    -0.08684   0.92112   1.00
C5       0.65014    -0.30542   0.96871   1.00
H2       0.62057    -0.33446   0.98230   1.00
H2       0.70087    -0.26368   0.97392   1.00
C5       0.66048    -0.35344   0.95501   1.00
H2       0.68835    -0.32491   0.94116   1.00
H2       0.60950    -0.39522   0.95006   1.00
C5       0.70011    -0.38251   0.96598   1.00
H2       0.67280    -0.41065   0.97990   1.00
H2       0.75192    -0.34101   0.97031   1.00
H2       0.70586    -0.41863   0.95588   1.00
C5       0.79267    -0.08176   0.98866   1.00
C5       0.69397    -0.13877   0.88426   1.00
H2       0.74923    -0.07237   0.99051   1.00
H2       0.83787    -0.03396   0.98311   1.00
H2       0.64595    -0.18285   0.89017   1.00
H2       0.73154    -0.15659   0.88203   1.00
H2       0.74599    -0.12167   0.84064   1.00
H2       0.75817    -0.06187   1.02930   1.00
H2       0.84461    0.00142    1.02211   1.00
C2       0.53906    -0.22042   0.99685   1.00
C3       0.57559    -0.14943   0.99332   1.00
O2       0.57437    -0.10500   1.00741   1.00
C3       0.55283    -0.26294   0.98436   1.00
H1       0.52451    -0.31763   0.98633   1.00
C3a      0.62567    -0.12263   0.97795   1.00
H1       0.65589    -0.06790   0.97621   1.00
C3b      0.60417    -0.23596   0.96953   1.00
C4       0.64118    -0.16530   0.96625   1.00
O_3      0.77573    -0.13697   0.97544   1.00
C5       0.52975    -0.08212   1.00102   1.00
H2       0.54589    -0.05528   0.98611   1.00
C5       0.53214    -0.03247   1.01719   1.00
H2       0.47655    -0.12554   0.99958   1.00
H2       0.57891    0.01785    1.01474   1.00
H2       0.53831    -0.05147   1.03218   1.00
C5       0.46817    -0.02484   1.01712   1.00
H2       0.45977    -0.01111   1.00164   1.00
H2       0.47428    0.01576    1.02788   1.00
H2       0.42191    -0.07294   1.02210   1.00
C5       0.80943    -0.10027   1.00923   1.00
H2       0.85957    -0.09806   1.00810   1.00
H2       0.77059    -0.15419   1.01265   1.00
C5       0.81043    -0.05305   1.02619   1.00
H2       0.82969    -0.06338   1.04048   1.00
C5       0.26724    0.12996    0.92252   1.00
H2       0.21905    0.08190    0.92574   1.00
H2       0.30084    0.13866    0.93580   1.00
C5       0.30006    0.12129    0.90298   1.00
H2       0.32887    0.09444    0.90630   1.00
H2       0.33548    0.17209    0.89628   1.00
O_3      0.27578    0.43623    0.94199   1.00
C4       0.16700    0.30538    0.95128   1.00
C3c      0.19288    0.26086    0.94905   1.00
H1       0.23307    0.26574    0.95898   1.00
C3d      0.11397    0.29752    0.93837   1.00
C3       0.16827    0.21024    0.93389   1.00
O2       0.19008    0.16339    0.93422   1.00
C3       0.09024    0.24802    0.92302   1.00
H1       0.05121    0.24550    0.91302   1.00
C2       0.11637    0.20307    0.92040   1.00
C5       0.25482    0.47561    0.93075   1.00
H2       0.27031    0.52559    0.93812   1.00
H2       0.19832    0.44790    0.92875   1.00
C5       0.28858    0.48897    0.91004   1.00
H2       0.27465    0.43905    0.90292   1.00
H2       0.34495    0.51719    0.91221   1.00
C5       0.26652    0.52963    0.89652   1.00
H2       0.27985    0.57933    0.90361   1.00
H2       0.21055    0.50045    0.89377   1.00
H2       0.29287    0.54019    0.88161   1.00
C5       0.03755    0.32139    0.95340   1.00
C5       0.24758    0.18549    0.92148   1.00
H2       0.05628    0.32005    0.96889   1.00
H2       -0.00590   0.26972    0.94970   1.00
H2       0.29042    0.23499    0.92706   1.00
H2       0.23687    0.19336    0.90545   1.00
H2       0.26041    0.08942    0.89152   1.00
H2       -0.00020   0.38102    0.98606   1.00
H2       -0.07355   0.31112    0.97365   1.00
C2       0.24499    0.46516    0.99557   1.00
C3       0.19286    0.39898    1.00088   1.00
O2       0.15503    0.38861    1.01828   1.00
C3       0.27259    0.47605    0.97576   1.00
H1       0.31375    0.52569    0.97138   1.00
C3a      0.16851    0.34623    0.98633   1.00
H1       0.12595    0.29684    0.99027   1.00
C3b      0.24678    0.42403    0.96113   1.00
C4       0.19424    0.35853    0.96634   1.00
O_3      0.09031    0.34325    0.93893   1.00
C5       0.17763    0.36156    1.03375   1.00
H2       0.17268    0.31187    1.02908   1.00
C5       0.13264    0.35050    1.05231   1.00
H2       0.23193    0.39760    1.03770   1.00
H2       0.08336    0.30228    1.05015   1.00
H2       0.12053    0.39250    1.05255   1.00
C5       0.16659    0.34848    1.07238   1.00
H2       0.18319    0.30997    1.07127   1.00
H2       0.13030    0.33468    1.08528   1.00
H2       0.21148    0.39943    1.07606   1.00
C5       0.01235    0.37237    0.95321   1.00
H2       -0.01688   0.36520    0.93896   1.00
H2       0.05759    0.42471    0.95267   1.00
C5       -0.03157   0.36478    0.97193   1.00
H2       -0.05480   0.39765    0.97024   1.00
C5       0.05273    0.74670    0.86845   1.00
H2       0.00063    0.73876    0.87064   1.00
H2       0.04792    0.69571    0.87028   1.00
C5       0.07818    0.77470    0.84686   1.00
H2       0.05720    0.73264    0.83551   1.00
H2       0.13488    0.80134    0.84634   1.00
O_3      0.27596    0.86868    0.95045   1.00
C4       0.13752    0.83216    0.95129   1.00
C3c      0.10921    0.79650    0.93317   1.00
H1       0.10704    0.74835    0.93052   1.00
C3d      0.13896    0.89434    0.95458   1.00
C3       0.08426    0.82258    0.91814   1.00
O2       0.04985    0.78108    0.90197   1.00
C3       0.11536    0.92108    0.93948   1.00
H1       0.11973    0.97010    0.94237   1.00
C2       0.08725    0.88605    0.92097   1.00
C5       0.31928    0.93480    0.95815   1.00
H2       0.35260    0.93490    0.97061   1.00
H2       0.28922    0.95791    0.96407   1.00
C5       0.36433    0.97833    0.94085   1.00
H2       0.33101    0.97667    0.92817   1.00
H2       0.39455    0.95514    0.93519   1.00
C5       0.41157    1.05203    0.94777   1.00
H2       0.44466    1.05402    0.96052   1.00
H2       0.38145    1.07600    0.95276   1.00
H2       0.44514    1.08269    0.93504   1.00
C5       0.12397    0.91367    0.98763   1.00
C5       0.09552    0.79392    0.88573   1.00
H2       0.10530    0.85973    0.99199   1.00
H2       0.07920    0.91947    0.98371   1.00
H2       0.13589    0.78215    0.89041   1.00
H2       0.12168    0.84834    0.88065   1.00
H2       0.06066    0.81083    0.84209   1.00
H2       0.12111    0.88307    1.03028   1.00
H2       0.06791    0.91970    1.02409   1.00
C2       0.22116    0.75932    0.99657   1.00
C3       0.15083    0.73746    0.99667   1.00
O2       0.11193    0.70706    1.01370   1.00
C3       0.26187    0.80267    0.98071   1.00
H1       0.31552    0.81889    0.97991   1.00
C3a      0.12337    0.76047    0.98142   1.00
H1       0.07026    0.74641    0.98236   1.00
C3b      0.23485    0.82720    0.96594   1.00
C4       0.16514    0.80627    0.96624   1.00
O_3      0.17092    0.93389    0.97146   1.00
C5       0.07319    0.63577    1.01102   1.00
H2       0.03835    0.62219    0.99769   1.00
C5       0.03085    0.60614    1.03031   1.00
H2       0.10694    0.61358    1.00878   1.00
H2       -0.01428   0.61332    1.02953   1.00
H2       0.06233    0.63742    1.04332   1.00
C5       0.00821    0.53029    1.03355   1.00
H2       -0.01845   0.50070    1.01977   1.00
H2       -0.02709   0.50912    1.04673   1.00
H2       0.05269    0.52325    1.03695   1.00
C5       0.16092    0.95925    1.00568   1.00
H2       0.16909    1.01116    1.00257   1.00
H2       0.21232    0.96425    1.00681   1.00
C5       0.12138    0.93060    1.02562   1.00
H2       0.14604    0.96842    1.03801   1.00
C5       -0.04299   0.01431    0.45738   1.00
H2       -0.08102   0.01305    0.44650   1.00
H2       -0.06233   0.01621    0.47271   1.00
C5       -0.03818   -0.05113   0.45497   1.00
H2       -0.08032   -0.09455   0.46328   1.00
H2       0.01152    -0.04241   0.46095   1.00
O_3      0.24959    0.32690    0.47495   1.00
C4       0.13777    0.30612    0.45106   1.00
C3c      0.08525    0.23968    0.45544   1.00
H1       0.06395    0.22738    0.47055   1.00
C3d      0.16414    0.32134    0.43119   1.00
C3       0.06009    0.18803    0.44059   1.00
O2       0.00323    0.12670    0.44528   1.00
C3       0.14011    0.26970    0.41648   1.00
H1       0.16355    0.28319    0.40165   1.00
C2       0.08753    0.20206    0.42071   1.00
C5       0.31234    0.36333    0.46460   1.00
H2       0.34992    0.40952    0.47311   1.00
H2       0.30513    0.37979    0.44929   1.00
C5       0.34138    0.31606    0.46217   1.00
H2       0.30302    0.26905    0.45417   1.00
H2       0.34896    0.30047    0.47755   1.00
C5       0.40876    0.35099    0.45037   1.00
H2       0.44715    0.39823    0.45821   1.00
H2       0.40080    0.36444    0.43477   1.00
H2       0.42997    0.31619    0.44914   1.00
C5       0.19583    0.42932    0.42086   1.00
C5       0.02313    0.08098    0.45299   1.00
H2       0.16820    0.43725    0.43356   1.00
H2       0.16130    0.40994    0.40743   1.00
H2       0.05321    0.10177    0.46722   1.00
H2       0.05557    0.07186    0.44208   1.00
H2       -0.04334   -0.06713   0.43872   1.00
H2       0.22920    0.56746    0.42985   1.00
H2       0.19692    0.54138    0.40423   1.00
C2       0.22166    0.46334    0.49611   1.00
C3       0.16333    0.45146    0.48505   1.00
O2       0.14303    0.49965    0.48480   1.00
C3       0.24905    0.42013    0.49262   1.00
H1       0.29260    0.42676    0.50121   1.00
C3a      0.13507    0.39854    0.47056   1.00
H1       0.09282    0.39259    0.46140   1.00
C3b      0.22216    0.36896    0.47774   1.00
C4       0.16482    0.35789    0.46653   1.00
O_3      0.21931    0.38449    0.42650   1.00
C5       0.08722    0.48017    0.49799   1.00
H2       0.04289    0.42998    0.49348   1.00
C5       0.06715    0.53534    0.49659   1.00
H2       0.10138    0.47643    0.51393   1.00
H2       0.03623    0.52634    0.48260   1.00
H2       0.11490    0.58514    0.49448   1.00
C5       0.02776    0.53751    0.51539   1.00
H2       -0.01675   0.48601    0.51819   1.00
H2       0.00912    0.57415    0.51308   1.00
H2       0.06109    0.55502    0.52915   1.00
C5       0.25799    0.49750    0.41549   1.00
H2       0.27870    0.49198    0.40073   1.00
H2       0.29807    0.50940    0.42713   1.00
C5       0.24099    0.55532    0.41449   1.00
H2       0.28544    0.60247    0.40849   1.00
C5       0.72606    0.70800    0.37841   1.00
H2       0.72997    0.74860    0.36811   1.00
H2       0.67193    0.66660    0.37777   1.00
C5       0.77348    0.68184    0.37075   1.00
H2       0.74877    0.64417    0.35828   1.00
H2       0.78585    0.65729    0.38340   1.00
O_3      0.69389    0.74659    0.48186   1.00
C4       0.69403    0.83289    0.45110   1.00
C3c      0.68606    0.79799    0.43279   1.00
H1       0.63942    0.75062    0.42993   1.00
C3d      0.75481    0.89503    0.45441   1.00
C3       0.73810    0.82285    0.41807   1.00
O2       0.72345    0.79046    0.39956   1.00
C3       0.80724    0.91926    0.43994   1.00
H1       0.85387    0.96588    0.44346   1.00
C2       0.80031    0.88422    0.42144   1.00
C5       0.74170    0.78255    0.49732   1.00
H2       0.71770    0.77152    0.51265   1.00
H2       0.76747    0.83872    0.49473   1.00
C5       0.79477    0.76021    0.49697   1.00
H2       0.81740    0.76945    0.48148   1.00
H2       0.76858    0.70419    0.49975   1.00
C5       0.85032    0.79881    0.51291   1.00
H2       0.82802    0.79019    0.52840   1.00
H2       0.87809    0.85454    0.50973   1.00
H2       0.88781    0.78073    0.51273   1.00
C5       0.74045    0.97308    0.47235   1.00
C5       0.74299    0.74012    0.39957   1.00
H2       0.68421    0.94445    0.47020   1.00
H2       0.76386    1.01168    0.45999   1.00
H2       0.71371    0.70076    0.41134   1.00
H2       0.79845    0.76172    0.40294   1.00
H2       0.82185    0.72434    0.36434   1.00
H2       0.65916    1.00711    0.49836   1.00
H2       0.71986    1.07888    0.48314   1.00
C2       0.54088    0.75605    0.49742   1.00
C3       0.53787    0.79629    0.48153   1.00
O2       0.49712    0.82532    0.48327   1.00
C3       0.59330    0.73933    0.49700   1.00
H1       0.59596    0.70717    0.50865   1.00
C3a      0.58766    0.82012    0.46608   1.00
H1       0.58694    0.85406    0.45467   1.00
C3b      0.64398    0.76491    0.48197   1.00
C4       0.64155    0.80577    0.46636   1.00
O_3      0.76727    0.92869    0.47279   1.00
C5       0.43669    0.78768    0.47194   1.00
H2       0.44805    0.78604    0.45554   1.00
C5       0.39506    0.82360    0.47436   1.00
H2       0.40653    0.73439    0.47770   1.00
H2       0.41631    0.86826    0.46394   1.00
H2       0.40355    0.84440    0.49008   1.00
C5       0.31833    0.77612    0.47031   1.00
H2       0.31115    0.75167    0.45520   1.00
H2       0.29074    0.80529    0.47053   1.00
H2       0.29434    0.73587    0.48225   1.00
C5       0.75644    1.00980    0.49267   1.00
H2       0.81207    1.04736    0.49326   1.00
H2       0.74574    0.97172    0.50488   1.00
C5       0.71427    1.04516    0.49615   1.00
H2       0.73226    1.07714    0.51004   1.00
C5       0.23145    0.13796    0.43360   1.00
H2       0.24552    0.13665    0.41754   1.00
H2       0.28018    0.16256    0.44219   1.00
C5       0.19564    0.18075    0.43533   1.00
H2       0.23375    0.23623    0.43577   1.00
H2       0.16413    0.16664    0.44935   1.00
O_3      0.11775    -0.15745   0.49094   1.00
C4       0.16794    -0.13839   0.45099   1.00
C3c      0.19879    -0.06809   0.44722   1.00
H1       0.24316    -0.03286   0.45586   1.00
C3d      0.11076    -0.18350   0.43937   1.00
C3       0.17258    -0.04206   0.43255   1.00
O2       0.21020    0.02631    0.42799   1.00
C3       0.08376    -0.15766   0.42502   1.00
H1       0.03841    -0.19405   0.41698   1.00
C2       0.11388    -0.08666   0.42117   1.00
C5       0.05348    -0.21697   0.49311   1.00
H2       0.05348    -0.25116   0.50527   1.00
H2       0.03720    -0.24653   0.47865   1.00
C5       0.00227    -0.19496   0.49872   1.00
H2       0.00366    -0.15926   0.48685   1.00
H2       0.01869    -0.16605   0.51326   1.00
C5       -0.06976   -0.25672   0.50067   1.00
H2       -0.07141   -0.29282   0.51240   1.00
H2       -0.08713   -0.28425   0.48596   1.00
H2       -0.10622   -0.23975   0.50522   1.00
C5       0.10479    -0.28512   0.43258   1.00
C5       0.18790    0.06322    0.43997   1.00
H2       0.15864    -0.26571   0.43719   1.00
H2       0.10326    -0.27770   0.41589   1.00
H2       0.19573    0.05722    0.45638   1.00
H2       0.13251    0.04549    0.43777   1.00
H2       0.16243    0.17285    0.42187   1.00
H2       0.14704    -0.38401   0.44045   1.00
H2       0.11700    -0.38828   0.41463   1.00
C2       0.24055    -0.22009   0.49694   1.00
C3       0.26904    -0.20757   0.47728   1.00
O2       0.30720    -0.23646   0.47115   1.00
C3       0.19046    -0.20190   0.50120   1.00
H1       0.16893    -0.20919   0.51624   1.00
C3a      0.24592    -0.17919   0.46235   1.00
H1       0.26541    -0.17354   0.44708   1.00
C3b      0.16602    -0.17572   0.48615   1.00
C4       0.19363    -0.16428   0.46653   1.00
O_3      0.07547    -0.25266   0.44353   1.00
C5       0.37735    -0.18772   0.47189   1.00
H2       0.38983    -0.14331   0.46183   1.00
C5       0.41590    -0.22323   0.46458   1.00
H2       0.39349    -0.16873   0.48766   1.00
H2       0.41411    -0.22520   0.44771   1.00
H2       0.38717    -0.27703   0.46997   1.00
C5       0.49031    -0.18804   0.47211   1.00
H2       0.51666    -0.13311   0.46799   1.00
H2       0.51824    -0.21175   0.46513   1.00
H2       0.49285    -0.19329   0.48891   1.00
C5       0.06366    -0.36099   0.43732   1.00
H2       0.01330    -0.38265   0.42961   1.00
H2       0.05347    -0.36704   0.45394   1.00
C5       0.10119    -0.39887   0.43081   1.00
H2       0.06695    -0.45476   0.43254   1.00
C5       0.31164    0.07185    0.13331   1.00
H2       0.29266    0.10546    0.13903   1.00
H2       0.36805    0.10188    0.13470   1.00
C5       0.28253    0.00683    0.14656   1.00
H2       0.31269    0.01680    0.16076   1.00
H2       0.28366    -0.03496   0.13800   1.00
O_3      0.34125    0.05112    0.02882   1.00
C4       0.30573    0.13878    0.04882   1.00
C3c      0.32089    0.13708    0.06940   1.00
H1       0.37317    0.15633    0.07403   1.00
C3d      0.23739    0.11433    0.04315   1.00
C3       0.26919    0.10983    0.08422   1.00
O2       0.28864    0.11748    0.10427   1.00
C3       0.18565    0.08597    0.05782   1.00
H1       0.13375    0.06565    0.05264   1.00
C2       0.20001    0.08318    0.07865   1.00
C5       0.29423    0.01200    0.01351   1.00
H2       0.31941    0.01794    -0.00147   1.00
H2       0.25417    0.02658    0.01171   1.00
C5       0.26067    -0.06241   0.01980   1.00
H2       0.23714    -0.06801   0.03504   1.00
H2       0.30104    -0.07657   0.02136   1.00
C5       0.20679    -0.10852   0.00428   1.00
H2       0.22984    -0.10283   -0.01101   1.00
H2       0.16522    -0.09599   0.00322   1.00
H2       0.18389    -0.16282   0.00890   1.00
C5       0.22450    0.17231    0.01682   1.00
C5       0.29097    0.05933    0.11093   1.00
H2       0.27785    0.21519    0.01814   1.00
H2       0.19070    0.18466    0.02602   1.00
H2       0.32950    0.05337    0.10198   1.00
H2       0.24089    0.01120    0.10916   1.00
H2       0.22898    -0.01034   0.15136   1.00
H2       0.28043    0.26543    -0.01697   1.00
H2       0.20556    0.26316    -0.00608   1.00
C2       0.45970    0.21389    0.00276   1.00
C3       0.44526    0.25939    0.01334   1.00
O2       0.46715    0.32399    0.00586   1.00
C3       0.42467    0.14432    0.00845   1.00
H1       0.43584    0.10851    0.00100   1.00
C3a      0.39554    0.23448    0.02882   1.00
H1       0.38229    0.26925    0.03599   1.00
C3b      0.37371    0.11933    0.02340   1.00
C4       0.35866    0.16444    0.03370   1.00
O_3      0.21917    0.11011    0.02294   1.00
C5       0.52529    0.37241    0.01657   1.00
H2       0.51417    0.37207    0.03308   1.00
C5       0.54559    0.44243    0.00764   1.00
H2       0.56832    0.36218    0.01476   1.00
H2       0.51169    0.45998    0.01420   1.00
H2       0.53448    0.43541    -0.00892   1.00
C5       0.62111    0.49572    0.01140   1.00
H2       0.63257    0.49814    0.02787   1.00
H2       0.63245    0.54715    0.00622   1.00
H2       0.65587    0.48314    0.00274   1.00
C5       0.20282    0.16484    -0.00532   1.00
H2       0.14656    0.13040    -0.00614   1.00
H2       0.22653    0.13899    -0.01357   1.00
C5       0.22392    0.23419    -0.01522   1.00
H2       0.20120    0.22632    -0.03061   1.00
C5       0.72014    0.71196    0.12595   1.00
H2       0.76516    0.72025    0.13492   1.00
H2       0.68282    0.65653    0.12700   1.00
C5       0.68997    0.75388    0.13529   1.00
H2       0.65686    0.72676    0.14852   1.00
H2       0.65931    0.76262    0.12373   1.00
O_3      0.73382    0.68401    0.02114   1.00
C4       0.83295    0.69410    0.04888   1.00
C3c      0.80265    0.68313    0.06812   1.00
H1       0.75894    0.63414    0.07171   1.00
C3d      0.89047    0.75800    0.04460   1.00
C3       0.82737    0.73508    0.08287   1.00
O2       0.80046    0.71810    0.10211   1.00
C3       0.91441    0.81024    0.05912   1.00
H1       0.95714    0.85914    0.05490   1.00
C2       0.88390    0.80025    0.07858   1.00
C5       0.76180    0.73265    0.00540   1.00
H2       0.74838    0.70858    -0.00992   1.00
H2       0.81852    0.76306    0.00656   1.00
C5       0.73290    0.78016    0.00744   1.00
H2       0.74465    0.80275    0.02294   1.00
H2       0.67632    0.74936    0.00606   1.00
C5       0.76268    0.83635    -0.00873   1.00
H2       0.75155    0.81414    -0.02425   1.00
H2       0.81890    0.86861    -0.00693   1.00
H2       0.73984    0.86967    -0.00728   1.00
C5       0.96836    0.75267    0.02389   1.00
C5       0.74576    0.73101    0.10412   1.00
H2       0.94505    0.69666    0.02598   1.00
H2       1.00980    0.77912    0.03532   1.00
H2       0.70431    0.69896    0.09319   1.00
H2       0.76144    0.78550    0.10104   1.00
H2       0.73110    0.80415    0.14111   1.00
H2       1.00502    0.67940    -0.00458   1.00
H2       1.07800    0.74461    0.00927   1.00
C2       0.75548    0.54076    0.00262   1.00
C3       0.80248    0.54261    0.01703   1.00
O2       0.83667    0.50738    0.01361   1.00
C3       0.73254    0.58828    0.00452   1.00
H1       0.69525    0.58707    -0.00596   1.00
C3a      0.82659    0.59233    0.03251   1.00
H1       0.86546    0.59556    0.04272   1.00
C3b      0.75825    0.63904    0.01953   1.00
C4       0.80576    0.64148    0.03366   1.00
O_3      0.91897    0.77307    0.02540   1.00
C5       0.80706    0.44662    0.02507   1.00
H2       0.80891    0.45743    0.04165   1.00
C5       0.84835    0.41131    0.02072   1.00
H2       0.75290    0.41233    0.02058   1.00
H2       0.89579    0.43637    0.02999   1.00
H2       0.86461    0.42128    0.00454   1.00
C5       0.80807    0.33400    0.02498   1.00
H2       0.78767    0.32486    0.04070   1.00
H2       0.84144    0.31121    0.02329   1.00
H2       0.76508    0.30683    0.01401   1.00
C5       0.99912    0.77135    0.00272   1.00
H2       1.03228    0.82778    0.00188   1.00
H2       0.95690    0.75691    -0.00835   1.00
C5       1.03957    0.73544    -0.00266   1.00
H2       1.06703    0.75561    -0.01724   1.00
C5       0.13791    0.23108    0.06630   1.00
H2       0.13670    0.24524    0.08236   1.00
H2       0.16254    0.27976    0.05769   1.00
C5       0.18058    0.19514    0.06458   1.00
H2       0.23608    0.23318    0.06411   1.00
H2       0.16635    0.16355    0.05056   1.00
O_3      -0.15772   0.11754    0.00908   1.00
C4       -0.13839   0.16794    0.04901   1.00
C3c      -0.06808   0.19870    0.05275   1.00
H1       -0.03284   0.24301    0.04409   1.00
C3d      -0.18350   0.11085    0.06066   1.00
C3       -0.04205   0.17250    0.06742   1.00
O2       0.02634    0.21004    0.07195   1.00
C3       -0.15767   0.08385    0.07501   1.00
H1       -0.19407   0.03857    0.08307   1.00
C2       -0.08666   0.11388    0.07883   1.00
C5       -0.21732   0.05332    0.00695   1.00
H2       -0.25153   0.05332    -0.00521   1.00
H2       -0.24681   0.03715    0.02142   1.00
C5       -0.19545   0.00199    0.00135   1.00
H2       -0.15973   0.00337    0.01321   1.00
H2       -0.16661   0.01829    -0.01321   1.00
C5       -0.25730   -0.07001   -0.00057   1.00
H2       -0.29342   -0.07165   -0.01229   1.00
H2       -0.28477   -0.08727   0.01415   1.00
H2       -0.24043   -0.10655   -0.00511   1.00
C5       -0.28500   0.10510    0.06748   1.00
C5       0.06312    0.18759    0.05997   1.00
H2       -0.26554   0.15894    0.06285   1.00
H2       -0.27751   0.10364    0.08417   1.00
H2       0.05706    0.19536    0.04355   1.00
H2       0.04531    0.13220    0.06219   1.00
H2       0.17269    0.16198    0.07804   1.00
H2       -0.38377   0.14754    0.05962   1.00
H2       -0.38796   0.11760    0.08546   1.00
C2       -0.22010   0.24055    0.00306   1.00
C3       -0.20744   0.26914    0.02271   1.00
O2       -0.23620   0.30742    0.02884   1.00
C3       -0.20204   0.19036    -0.00119   1.00
H1       -0.20944   0.16875    -0.01622   1.00
C3a      -0.17906   0.24602    0.03764   1.00
H1       -0.17330   0.26559    0.05290   1.00
C3b      -0.17586   0.16592    0.01387   1.00
C4       -0.16428   0.19363    0.03347   1.00
O_3      -0.25269   0.07564    0.05653   1.00
C5       -0.18738   0.37754    0.02806   1.00
H2       -0.14294   0.39000    0.03811   1.00
C5       -0.22275   0.41623    0.03537   1.00
H2       -0.16845   0.39359    0.01228   1.00
H2       -0.22463   0.41452    0.05225   1.00
H2       -0.27658   0.38755    0.03001   1.00
C5       -0.18748   0.49061    0.02781   1.00
H2       -0.13254   0.51689    0.03191   1.00
H2       -0.21108   0.51864    0.03479   1.00
H2       -0.19281   0.49308    0.01101   1.00
C5       -0.36091   0.06406    0.06277   1.00
H2       -0.38260   0.01372    0.07050   1.00
H2       -0.36705   0.05378    0.04616   1.00
C5       -0.39865   0.10172    0.06928   1.00
H2       -0.45456   0.06754    0.06758   1.00
C5       0.66966    1.32162    0.87528   1.00
H2       0.63285    1.32775    0.88490   1.00
H2       0.65380    1.32201    0.85935   1.00
C5       0.74249    1.38202    0.87899   1.00
H2       0.75142    1.42759    0.87012   1.00
H2       0.78095    1.36756    0.87449   1.00
O_3      0.61591    0.99349    0.86172   1.00
C4       0.52781    1.02728    0.88225   1.00
C3c      0.55036    1.09567    0.87737   1.00
H1       0.54761    1.10954    0.86185   1.00
C3d      0.53093    1.01014    0.90261   1.00
C3       0.57757    1.14719    0.89225   1.00
O2       0.59078    1.21136    0.88682   1.00
C3       0.55919    1.06151    0.91740   1.00
H1       0.56276    1.04626    0.93268   1.00
C2       0.58292    1.13103    0.91268   1.00
C5       0.63290    0.95188    0.87341   1.00
H2       0.62130    0.90400    0.86534   1.00
H2       0.60479    0.93772    0.88813   1.00
C5       0.70903    0.99232    0.87761   1.00
H2       0.72092    1.04105    0.88516   1.00
H2       0.73659    1.00562    0.86282   1.00
C5       0.73152    0.95154    0.89092   1.00
H2       0.71937    0.90259    0.88353   1.00
H2       0.70580    0.94027    0.90595   1.00
H2       0.78754    0.98131    0.89345   1.00
C5       0.44369    0.90577    0.91201   1.00
C5       0.65948    1.25131    0.88061   1.00
H2       0.41309    0.90163    0.89834   1.00
H2       0.42855    0.92839    0.92461   1.00
H2       0.66922    1.22793    0.86704   1.00
H2       0.69626    1.25593    0.89268   1.00
H2       0.75025    1.39784    0.89529   1.00
H2       0.33134    0.77277    0.90170   1.00
H2       0.32211    0.80156    0.92662   1.00
C2       0.45176    0.86955    0.83733   1.00
C3       0.40729    0.88811    0.84666   1.00
O2       0.33759    0.84578    0.84540   1.00
C3       0.52180    0.90642    0.84246   1.00
H1       0.55745    0.89464    0.83520   1.00
C3a      0.43304    0.94120    0.86111   1.00
H1       0.39771    0.95219    0.86897   1.00
C3b      0.54687    0.95771    0.85731   1.00
C4       0.50242    0.97540    0.86681   1.00
O_3      0.51422    0.94449    0.90795   1.00
C5       0.30990    0.87069    0.83081   1.00
H2       0.32053    0.92307    0.83476   1.00
C5       0.23275    0.82185    0.83058   1.00
H2       0.33121    0.87212    0.81546   1.00
H2       0.20986    0.83435    0.84366   1.00
H2       0.22394    0.76952    0.83334   1.00
C5       0.19895    0.82443    0.81055   1.00
H2       0.21274    0.87793    0.80722   1.00
H2       0.14242    0.79268    0.81159   1.00
H2       0.21503    0.80371    0.79762   1.00
C5       0.42798    0.83457    0.91817   1.00
H2       0.44908    0.83738    0.93362   1.00
H2       0.45568    0.81827    0.90766   1.00
C5       0.35099    0.78287    0.91759   1.00
H2       0.34088    0.73348    0.92416   1.00
C5       -0.03786   0.60425    0.96159   1.00
H2       -0.08510   0.60608    0.95847   1.00
H2       0.00505    0.65664    0.95875   1.00
C5       -0.03771   0.58382    0.98398   1.00
H2       -0.02038   0.62870    0.99417   1.00
H2       -0.00319   0.56245    0.98586   1.00
O_3      0.08312    0.47868    0.88565   1.00
C4       -0.02801   0.50107    0.88203   1.00
C3c      -0.02447   0.54032    0.89896   1.00
H1       0.01848    0.59130    0.90068   1.00
C3d      -0.08491   0.43513    0.87992   1.00
C3       -0.07540   0.51437    0.91403   1.00
O2       -0.07275   0.55851    0.92883   1.00
C3       -0.13505   0.40867    0.89510   1.00
H1       -0.17650   0.35697    0.89319   1.00
C2       -0.13188   0.44739    0.91243   1.00
C5       0.06656    0.41210    0.87987   1.00
H2       0.10165    0.41227    0.86798   1.00
H2       0.01334    0.38283    0.87395   1.00
C5       0.07276    0.37641    0.89858   1.00
H2       0.03914    0.37793    0.91066   1.00
H2       0.12623    0.40571    0.90424   1.00
C5       0.05320    0.30255    0.89378   1.00
H2       0.08626    0.30064    0.88163   1.00
H2       -0.00092   0.27263    0.88880   1.00
H2       0.05948    0.27777    0.90752   1.00
C5       -0.11839   0.40394    0.84717   1.00
C5       -0.03705   0.55475    0.94592   1.00
H2       -0.08724   0.45714    0.84154   1.00
H2       -0.17094   0.39389    0.85050   1.00
H2       0.01649    0.57035    0.94166   1.00
H2       -0.06080   0.50209    0.95238   1.00
H2       -0.09015   0.54530    0.98913   1.00
H2       -0.09208   0.42376    0.80412   1.00
H2       -0.18248   0.38108    0.81015   1.00
C2       0.12894    0.57420    0.83689   1.00
C3       0.07560    0.58915    0.83532   1.00
O2       0.06353    0.61185    0.81722   1.00
C3       0.13075    0.53780    0.85410   1.00
H1       0.17187    0.52709    0.85601   1.00
C3a      0.02492    0.56619    0.85050   1.00
H1       -0.01767   0.57466    0.84849   1.00
C3b      0.07910    0.51316    0.86883   1.00
C4       0.02554    0.52715    0.86710   1.00
O_3      -0.08828   0.39257    0.86435   1.00
C5       0.08980    0.68294    0.81797   1.00
H2       0.06578    0.69698    0.83045   1.00
C5       0.07342    0.70383    0.79758   1.00
H2       0.14609    0.71065    0.82030   1.00
H2       0.01924    0.69142    0.79780   1.00
H2       0.07727    0.67096    0.78569   1.00
C5       0.12099    0.77987    0.79260   1.00
H2       0.12061    0.81173    0.80537   1.00
H2       0.10397    0.79439    0.77856   1.00
H2       0.17438    0.79132    0.78977   1.00
C5       -0.12219   0.35528    0.83062   1.00
H2       -0.16244   0.30266    0.83479   1.00
H2       -0.07287   0.35553    0.83037   1.00
C5       -0.13653   0.37527    0.80964   1.00
H2       -0.14601   0.33495    0.79838   1.00
C5       0.42198    0.39844    0.96606   1.00
H2       0.41146    0.34527    0.96433   1.00
H2       0.37183    0.39578    0.96464   1.00
C5       0.45322    0.42576    0.98724   1.00
H2       0.41268    0.40774    0.99904   1.00
H2       0.48196    0.48252    0.98714   1.00
O_3      0.54110    0.61076    0.88158   1.00
C4       0.49879    0.47082    0.88204   1.00
C3c      0.46499    0.44584    0.90062   1.00
H1       0.41829    0.44629    0.90363   1.00
C3d      0.55904    0.46887    0.87830   1.00
C3       0.49112    0.42089    0.91564   1.00
O2       0.45108    0.38970    0.93235   1.00
C3       0.58589    0.44528    0.89338   1.00
H1       0.63349    0.44700    0.89009   1.00
C2       0.55275    0.42051    0.91233   1.00
C5       0.60663    0.65088    0.87308   1.00
H2       0.60674    0.68344    0.86038   1.00
H2       0.62696    0.61829    0.86723   1.00
C5       0.65340    0.69697    0.88971   1.00
H2       0.65181    0.66453    0.90265   1.00
H2       0.63297    0.72971    0.89531   1.00
C5       0.72661    0.74085    0.88192   1.00
H2       0.72851    0.77303    0.86891   1.00
H2       0.74789    0.70826    0.87699   1.00
H2       0.75971    0.77526    0.89416   1.00
C5       0.57295    0.44853    0.84525   1.00
C5       0.46784    0.43778    0.94813   1.00
H2       0.51895    0.43154    0.84142   1.00
H2       0.57697    0.40294    0.84947   1.00
H2       0.45771    0.47907    0.94325   1.00
H2       0.52277    0.46251    0.95262   1.00
H2       0.48820    0.40666    0.99188   1.00
H2       0.53758    0.44186    0.80289   1.00
H2       0.57152    0.38643    0.80921   1.00
C2       0.42606    0.55437    0.83670   1.00
C3       0.40137    0.48349    0.83729   1.00
O2       0.36773    0.44309    0.82079   1.00
C3       0.47226    0.59584    0.85193   1.00
H1       0.49073    0.65003    0.85221   1.00
C3a      0.42442    0.45615    0.85256   1.00
H1       0.40806    0.40239    0.85213   1.00
C3b      0.49675    0.56882    0.86671   1.00
C4       0.47298    0.49850    0.86709   1.00
O_3      0.59696    0.49756    0.86091   1.00
C5       0.29674    0.40726    0.82427   1.00
H2       0.28353    0.37393    0.83795   1.00
C5       0.26339    0.36303    0.80553   1.00
H2       0.27702    0.44314    0.82642   1.00
H2       0.26833    0.31662    0.80660   1.00
H2       0.29372    0.39211    0.79207   1.00
C5       0.18797    0.34318    0.80301   1.00
H2       0.15962    0.31905    0.81720   1.00
H2       0.16398    0.30649    0.79027   1.00
H2       0.18281    0.38860    0.79933   1.00
C5       0.61685    0.48189    0.82662   1.00
H2       0.66823    0.48810    0.82928   1.00
H2       0.62404    0.53408    0.82507   1.00
C5       0.58450    0.44039    0.80720   1.00
H2       0.62096    0.46225    0.79435   1.00
C5       0.64703    0.39914    0.28916   1.00
H2       0.66512    0.36512    0.28318   1.00
H2       0.65011    0.39716    0.30594   1.00
C5       0.69417    0.47266    0.28141   1.00
H2       0.74125    0.49911    0.29080   1.00
H2       0.66695    0.50215    0.28201   1.00
O_3      0.29657    0.26861    0.29570   1.00
C4       0.36080    0.19449    0.28446   1.00
C3c      0.42984    0.23588    0.28960   1.00
H1       0.44427    0.24808    0.30533   1.00
C3d      0.34318    0.17840    0.26390   1.00
C3       0.48106    0.26290    0.27462   1.00
O2       0.54795    0.29596    0.28094   1.00
C3       0.39392    0.20629    0.24892   1.00
H1       0.37770    0.19450    0.23330   1.00
C2       0.46390    0.24885    0.25383   1.00
C5       0.24698    0.26218    0.28152   1.00
H2       0.19622    0.24418    0.28869   1.00
H2       0.24072    0.22576    0.26917   1.00
C5       0.27112    0.33215    0.27235   1.00
H2       0.32270    0.35098    0.26568   1.00
H2       0.27658    0.36792    0.28478   1.00
C5       0.22112    0.32928    0.25616   1.00
H2       0.16939    0.31007    0.26269   1.00
H2       0.21744    0.29542    0.24341   1.00
H2       0.23884    0.38114    0.24996   1.00
C5       0.25272    0.07171    0.25867   1.00
C5       0.57247    0.36677    0.28247   1.00
H2       0.25512    0.05511    0.27437   1.00
H2       0.28340    0.05788    0.24853   1.00
H2       0.54234    0.37669    0.29398   1.00
H2       0.56870    0.38951    0.26780   1.00
H2       0.71136    0.47269    0.26551   1.00
H2       0.13532    -0.05040   0.27369   1.00
H2       0.17256    -0.06587   0.25132   1.00
C2       0.20205    0.11712    0.32907   1.00
C3       0.23604    0.08083    0.32445   1.00
O2       0.20833    0.01350    0.33016   1.00
C3       0.22405    0.18055    0.31940   1.00
H1       0.20026    0.21041    0.32299   1.00
C3a      0.28935    0.10744    0.31007   1.00
H1       0.31223    0.07721    0.30585   1.00
C3b      0.27559    0.20582    0.30463   1.00
C4       0.30862    0.16918    0.29982   1.00
O_3      0.27560    0.14218    0.25791   1.00
C5       0.24204    0.00838    0.34750   1.00
H2       0.29762    0.02968    0.34455   1.00
C5       0.20930    -0.06751   0.35262   1.00
H2       0.23601    0.03605    0.36060   1.00
H2       0.23097    -0.09082   0.34232   1.00
H2       0.15402    -0.09179   0.34892   1.00
C5       0.21936    -0.08046   0.37499   1.00
H2       0.27449    -0.05148   0.37885   1.00
H2       0.19997    -0.13568   0.37771   1.00
H2       0.19047    -0.06511   0.38544   1.00
C5       0.17880    0.03410    0.25162   1.00
H2       0.17775    0.04152    0.23496   1.00
H2       0.15186    0.05843    0.25889   1.00
C5       0.14281    -0.04228   0.25698   1.00
H2       0.09157    -0.06926   0.24980   1.00
C5       0.59687    0.36871    0.28387   1.00
H2       0.57502    0.37716    0.26983   1.00
H2       0.57093    0.37843    0.29666   1.00
C5       0.58182    0.29411    0.28443   1.00
H2       0.52911    0.25922    0.28998   1.00
H2       0.61877    0.28992    0.29461   1.00
O_3      0.90991    0.63274    0.31721   1.00
C4       0.83421    0.63959    0.28435   1.00
C3c      0.76913    0.58162    0.28597   1.00
H1       0.73735    0.57608    0.29889   1.00
C3d      0.87442    0.64629    0.26724   1.00
C3       0.74440    0.52967    0.27122   1.00
O2       0.67731    0.47873    0.27254   1.00
C3       0.85047    0.59405    0.25273   1.00
H1       0.88408    0.60032    0.24024   1.00
C2       0.78507    0.53474    0.25425   1.00
C5       0.97799    0.65352    0.31194   1.00
H2       1.01541    0.69493    0.32200   1.00
H2       0.98903    0.67207    0.29595   1.00
C5       0.98753    0.59202    0.31413   1.00
H2       0.94886    0.54998    0.30451   1.00
H2       0.97700    0.57433    0.33019   1.00
C5       1.05982    0.60959    0.30797   1.00
H2       1.09872    0.65185    0.31742   1.00
H2       1.06955    0.62498    0.29174   1.00
H2       1.06630    0.56444    0.31010   1.00
C5       0.94083    0.75591    0.25638   1.00
C5       0.67263    0.42291    0.28353   1.00
H2       0.91231    0.77446    0.26563   1.00
H2       0.91791    0.74284    0.24090   1.00
H2       0.69193    0.43896    0.29930   1.00
H2       0.70318    0.40184    0.27650   1.00
H2       0.58493    0.27581    0.26893   1.00
H2       1.00357    0.90101    0.26310   1.00
H2       0.98943    0.87830    0.23639   1.00
C2       0.91528    0.79553    0.32982   1.00
C3       0.87442    0.79812    0.31406   1.00
O2       0.87398    0.85772    0.31010   1.00
C3       0.92562    0.73890    0.33068   1.00
H1       0.95517    0.73452    0.34284   1.00
C3a      0.84661    0.74571    0.29939   1.00
H1       0.81870    0.75041    0.28678   1.00
C3b      0.89972    0.68800    0.31571   1.00
C4       0.85998    0.69118    0.29988   1.00
O_3      0.94077    0.69978    0.26569   1.00
C5       0.81451    0.85412    0.31813   1.00
H2       0.76758    0.81074    0.31141   1.00
C5       0.81731    0.92129    0.31283   1.00
H2       0.81242    0.84776    0.33493   1.00
H2       0.80089    0.91865    0.29678   1.00
H2       0.87175    0.96241    0.31354   1.00
C5       0.77325    0.93766    0.32702   1.00
H2       0.72028    0.89377    0.32736   1.00
H2       0.77200    0.98366    0.32168   1.00
H2       0.79440    0.94904    0.34277   1.00
C5       1.01472    0.81285    0.25466   1.00
H2       1.04015    0.79876    0.24268   1.00
H2       1.04094    0.81573    0.26923   1.00
C5       1.02044    0.88211    0.24994   1.00
H2       1.07438    0.92078    0.24670   1.00
C5       0.76055    0.39618    0.28523   1.00
H2       0.79209    0.42050    0.27156   1.00
H2       0.79434    0.42159    0.29843   1.00
C5       0.69901    0.40819    0.28547   1.00
H2       0.71420    0.45980    0.29149   1.00
H2       0.65750    0.36910    0.29511   1.00
O_3      0.72079    0.08441    0.31611   1.00
C4       0.80541    0.16583    0.28435   1.00
C3c      0.80957    0.22951    0.28646   1.00
H1       0.83346    0.26019    0.29976   1.00
C3d      0.77495    0.12709    0.26676   1.00
C3       0.78233    0.25419    0.27169   1.00
O2       0.79566    0.32027    0.27358   1.00
C3       0.74662    0.15093    0.25222   1.00
H1       0.72164    0.11836    0.23933   1.00
C2       0.74973    0.21488    0.25422   1.00
C5       0.67615    0.01645    0.31006   1.00
H2       0.68076    -0.02110   0.31989   1.00
H2       0.68613    0.00788    0.29406   1.00
C5       0.60378    0.00374    0.31170   1.00
H2       0.59970    0.04248    0.30232   1.00
H2       0.59418    0.01182    0.32776   1.00
C5       0.55185    -0.06856   0.30468   1.00
H2       0.55597    -0.10750   0.31388   1.00
H2       0.55991    -0.07591   0.28843   1.00
H2       0.49919    -0.07740   0.30640   1.00
C5       0.82328    0.06541    0.25576   1.00
C5       0.74198    0.32129    0.28423   1.00
H2       0.86902    0.09426    0.26552   1.00
H2       0.83407    0.09005    0.24051   1.00
H2       0.73774    0.30045    0.29984   1.00
H2       0.69143    0.29000    0.27664   1.00
H2       0.67903    0.40602    0.26982   1.00
H2       0.90944    0.00699    0.26263   1.00
H2       0.90309    0.02355    0.23597   1.00
C2       0.88035    0.08464    0.32976   1.00
C3       0.92467    0.12831    0.31459   1.00
O2       0.98641    0.13185    0.31105   1.00
C3       0.81233    0.07149    0.33009   1.00
H1       0.77763    0.03970    0.34181   1.00
C3a      0.89997    0.15610    0.29995   1.00
H1       0.93344    0.18627    0.28777   1.00
C3b      0.78734    0.09743    0.31513   1.00
C4       0.83117    0.13998    0.29988   1.00
O_3      0.76496    0.06190    0.26468   1.00
C5       1.03988    0.19145    0.31986   1.00
H2       1.04216    0.23823    0.31348   1.00
C5       1.10634    0.19218    0.31499   1.00
H2       1.03352    0.19134    0.33663   1.00
H2       1.12149    0.21071    0.29916   1.00
H2       1.09510    0.13835    0.31525   1.00
C5       1.16445    0.23622    0.32989   1.00
H2       1.17132    0.28831    0.33064   1.00
H2       1.21325    0.24015    0.32489   1.00
H2       1.15364    0.21329    0.34542   1.00
C5       0.80949    -0.00729   0.25343   1.00
H2       0.77163    -0.03248   0.24102   1.00
H2       0.78518    -0.03564   0.26766   1.00
C5       0.87517    -0.00952   0.24912   1.00
H2       0.86236    -0.06250   0.24542   1.00
C5       0.84865    0.65133    0.69776   1.00
H2       0.86642    0.61366    0.69777   1.00
H2       0.89552    0.70231    0.69798   1.00
C5       0.80700    0.64257    0.67825   1.00
H2       0.84142    0.66878    0.66518   1.00
H2       0.77288    0.66421    0.68056   1.00
O_3      0.74723    0.72251    0.78986   1.00
C4       0.80516    0.63878    0.78459   1.00
C3c      0.83141    0.65119    0.76478   1.00
H1       0.87274    0.70121    0.76077   1.00
C3d      0.75196    0.57298    0.78958   1.00
C3       0.80438    0.59996    0.74980   1.00
O2       0.83802    0.61336    0.73152   1.00
C3       0.72407    0.52223    0.77461   1.00
H1       0.68172    0.47326    0.77896   1.00
C2       0.74951    0.53413    0.75444   1.00
C5       0.68544    0.68995    0.80084   1.00
H2       0.68639    0.72017    0.81431   1.00
H2       0.67393    0.63850    0.80617   1.00
C5       0.62897    0.68206    0.78669   1.00
H2       0.62927    0.65352    0.77297   1.00
H2       0.64066    0.73375    0.78161   1.00
C5       0.55933    0.64477    0.79725   1.00
H2       0.55882    0.67275    0.81105   1.00
H2       0.54655    0.59228    0.80170   1.00
H2       0.51891    0.64082    0.78683   1.00
C5       0.75654    0.54047    0.82202   1.00
C5       0.80909    0.63928    0.71760   1.00
H2       0.80998    0.58243    0.82414   1.00
H2       0.75735    0.49412    0.81668   1.00
H2       0.81477    0.68820    0.72336   1.00
H2       0.75345    0.60343    0.71507   1.00
H2       0.77563    0.58764    0.67392   1.00
H2       0.80838    0.57328    0.86296   1.00
H2       0.78226    0.48596    0.85593   1.00
C2       0.87996    0.79444    0.83015   1.00
C3       0.91212    0.75547    0.82705   1.00
O2       0.95573    0.75462    0.84151   1.00
C3       0.82526    0.78296    0.81725   1.00
H1       0.80072    0.81314    0.81889   1.00
C3a      0.88814    0.70533    0.81170   1.00
H1       0.91076    0.67329    0.81028   1.00
C3b      0.80014    0.73157    0.80243   1.00
C4       0.83147    0.69217    0.79958   1.00
O_3      0.72091    0.55955    0.80842   1.00
C5       1.02412    0.79709    0.83551   1.00
H2       1.03483    0.78006    0.82075   1.00
C5       1.06898    0.79247    0.85208   1.00
H2       1.03624    0.85103    0.83393   1.00
H2       1.07044    0.74448    0.84984   1.00
H2       1.04310    0.78736    0.86688   1.00
C5       1.14183    0.85454    0.85235   1.00
H2       1.16490    0.86208    0.83701   1.00
H2       1.17445    0.84671    0.86341   1.00
H2       1.14185    0.90194    0.85713   1.00
C5       0.71992    0.52501    0.84236   1.00
H2       0.67089    0.47597    0.84104   1.00
H2       0.70678    0.56543    0.84550   1.00
C5       0.76378    0.52186    0.85971   1.00
H2       0.73302    0.50357    0.87383   1.00
C5       0.59502    0.43439    0.77265   1.00
H2       0.63263    0.41654    0.77286   1.00
H2       0.59449    0.45241    0.78828   1.00
C5       0.61828    0.49369    0.75732   1.00
H2       0.65745    0.54272    0.76419   1.00
H2       0.57387    0.49863    0.75246   1.00
O_3      0.25140    0.18995    0.78137   1.00
C4       0.36111    0.16518    0.78456   1.00
C3c      0.41992    0.22955    0.78645   1.00
H1       0.42631    0.26059    0.79963   1.00
C3d      0.35423    0.12513    0.76741   1.00
C3       0.47071    0.25527    0.77134   1.00
O2       0.53044    0.31479    0.77538   1.00
C3       0.40409    0.15114    0.75215   1.00
H1       0.39544    0.11958    0.73893   1.00
C2       0.46351    0.21643    0.75371   1.00
C5       0.20185    0.14666    0.76719   1.00
H2       0.14985    0.11837    0.77397   1.00
H2       0.21459    0.10866    0.76088   1.00
C5       0.20086    0.19099    0.75005   1.00
H2       0.25327    0.22071    0.74364   1.00
H2       0.18746    0.22830    0.75649   1.00
C5       0.14983    0.14753    0.73353   1.00
H2       0.09745    0.11735    0.73985   1.00
H2       0.16449    0.11190    0.72660   1.00
H2       0.14872    0.18093    0.72135   1.00
C5       0.30017    0.01083    0.77373   1.00
C5       0.52636    0.37110    0.76783   1.00
H2       0.30570    0.01860    0.79043   1.00
H2       0.34434    0.00696    0.76787   1.00
H2       0.48415    0.37434    0.77551   1.00
H2       0.51621    0.36745    0.75114   1.00
H2       0.64256    0.48542    0.74367   1.00
H2       0.21628    -0.10466   0.79939   1.00
H2       0.27226    -0.11919   0.78297   1.00
C2       0.20136    0.08740    0.82885   1.00
C3       0.25771    0.07747    0.83133   1.00
O2       0.25447    0.02932    0.84481   1.00
C3       0.20098    0.12620    0.81208   1.00
H1       0.15945    0.13622    0.81004   1.00
C3a      0.31091    0.10459    0.81691   1.00
H1       0.35176    0.09324    0.81839   1.00
C3b      0.25288    0.15124    0.79742   1.00
C4       0.30835    0.14043    0.79973   1.00
O_3      0.29503    0.06371    0.76408   1.00
C5       0.29014    0.06115    0.86276   1.00
H2       0.34492    0.09826    0.85957   1.00
C5       0.28515    0.00476    0.87670   1.00
H2       0.26705    0.08862    0.87045   1.00
H2       0.32332    -0.00943   0.87164   1.00
H2       0.23398    -0.04101   0.87430   1.00
C5       0.29583    0.02551    0.89926   1.00
H2       0.34468    0.07421    0.90113   1.00
H2       0.29756    -0.01439   0.90869   1.00
H2       0.25293    0.03152    0.90527   1.00
C5       0.23467    -0.05567   0.76936   1.00
H2       0.23505    -0.06930   0.75315   1.00
H2       0.19091    -0.04666   0.77129   1.00
C5       0.22611    -0.11371   0.78342   1.00
H2       0.18179    -0.16279   0.77844   1.00
C5       0.57591    0.18783    0.77787   1.00
H2       0.59902    0.24402    0.77671   1.00
H2       0.56189    0.17511    0.79408   1.00
C5       0.51158    0.15258    0.76431   1.00
H2       0.46688    0.15017    0.77215   1.00
H2       0.49975    0.09987    0.76052   1.00
O_3      0.79528    0.05663    0.78438   1.00
C4       0.83489    0.19592    0.78454   1.00
C3c      0.77480    0.19840    0.78760   1.00
H1       0.74716    0.18013    0.80170   1.00
C3d      0.87066    0.22088    0.76617   1.00
C3       0.74892    0.22341    0.77251   1.00
O2       0.69468    0.23200    0.77752   1.00
C3       0.84433    0.24460    0.75097   1.00
H1       0.87224    0.26097    0.73685   1.00
C2       0.78323    0.24678    0.75372   1.00
C5       0.83047    0.04064    0.76968   1.00
H2       0.85627    0.01430    0.77641   1.00
H2       0.86978    0.08753    0.76179   1.00
C5       0.77847    -0.00670   0.75425   1.00
H2       0.75133    0.01886    0.74793   1.00
H2       0.73985    -0.05359   0.76226   1.00
C5       0.81293    -0.02477   0.73725   1.00
H2       0.84052    -0.04988   0.74346   1.00
H2       0.84978    0.02175    0.72878   1.00
H2       0.77395    -0.06059   0.72636   1.00
C5       0.98623    0.27225    0.76938   1.00
C5       0.63281    0.17311    0.77212   1.00
H2       0.98401    0.27577    0.78616   1.00
H2       0.99354    0.32056    0.76256   1.00
H2       0.62697    0.12799    0.78069   1.00
H2       0.63020    0.16092    0.75559   1.00
H2       0.51874    0.18177    0.74997   1.00
H2       1.10573    0.29909    0.79237   1.00
H2       1.12223    0.36661    0.77443   1.00
C2       0.91199    0.11342    0.82887   1.00
C3       0.92969    0.18263    0.82989   1.00
O2       0.98404    0.22798    0.84162   1.00
C3       0.86599    0.07200    0.81360   1.00
H1       0.85006    0.01842    0.81273   1.00
C3a      0.90283    0.20905    0.81550   1.00
H1       0.91990    0.26298    0.81577   1.00
C3b      0.84109    0.09892    0.79891   1.00
C4       0.85955    0.16796    0.79975   1.00
O_3      0.92717    0.21483    0.76180   1.00
C5       0.96045    0.24115    0.85993   1.00
H2       0.92686    0.26326    0.85703   1.00
C5       1.02338    0.29247    0.87186   1.00
H2       0.93142    0.19359    0.86901   1.00
H2       1.04106    0.34430    0.86557   1.00
H2       1.06471    0.28056    0.86881   1.00
C5       1.00999    0.29104    0.89484   1.00
H2       0.96517    0.29763    0.89750   1.00
H2       1.05499    0.33276    0.90274   1.00
H2       1.00065    0.24214    0.90185   1.00
C5       1.04701    0.26398    0.76391   1.00
H2       1.05622    0.27229    0.74729   1.00
H2       1.03314    0.21019    0.76700   1.00
C5       1.11131    0.31314    0.77597   1.00
H2       1.15606    0.31074    0.77010   1.00
C5       -0.03933   0.35446    0.46113   1.00
H2       -0.04979   0.39090    0.46944   1.00
H2       0.01654    0.37512    0.46232   1.00
C5       -0.07859   0.28343    0.47128   1.00
H2       -0.05054   0.28079    0.48480   1.00
H2       -0.08543   0.24315    0.46030   1.00
O_3      -0.01235   0.38248    0.35598   1.00
C4       -0.02747   0.47217    0.38219   1.00
C3c      -0.01531   0.45651    0.40181   1.00
H1       0.03462    0.46470    0.40570   1.00
C3d      -0.09262   0.46203    0.37753   1.00
C3       -0.06721   0.42927    0.41658   1.00
O2       -0.04938   0.42306    0.43609   1.00
C3       -0.14476   0.43370    0.39208   1.00
H1       -0.19454   0.42458    0.38758   1.00
C2       -0.13354   0.41687    0.41192   1.00
C5       -0.06105   0.35777    0.34021   1.00
H2       -0.03686   0.36735    0.32493   1.00
H2       -0.09360   0.38189    0.34072   1.00
C5       -0.10577   0.28127    0.34310   1.00
H2       -0.12844   0.27161    0.35858   1.00
H2       -0.07285   0.25767    0.34237   1.00
C5       -0.16192   0.25051    0.32693   1.00
H2       -0.13966   0.26038    0.31142   1.00
H2       -0.19625   0.27233    0.32810   1.00
H2       -0.19315   0.19437    0.32902   1.00
C5       -0.09139   0.54045    0.35556   1.00
C5       -0.05909   0.35695    0.43907   1.00
H2       -0.03569   0.57546    0.35756   1.00
H2       -0.11934   0.55514    0.36653   1.00
H2       -0.02570   0.34805    0.42855   1.00
H2       -0.11291   0.31596    0.43618   1.00
H2       -0.12967   0.27267    0.47685   1.00
H2       -0.02187   0.64738    0.32594   1.00
H2       -0.08920   0.65331    0.33914   1.00
C2       0.12598    0.54785    0.33597   1.00
C3       0.12167    0.59355    0.34964   1.00
O2       0.15417    0.66240    0.34539   1.00
C3       0.08094    0.47712    0.33862   1.00
H1       0.08411    0.44073    0.32874   1.00
C3a      0.07196    0.56808    0.36512   1.00
H1       0.06674    0.60391    0.37472   1.00
C3b      0.03014    0.45210    0.35362   1.00
C4       0.02522    0.49764    0.36700   1.00
O_3      -0.10867   0.47175    0.35802   1.00
C5       0.21477    0.69740    0.35680   1.00
H2       0.20408    0.69033    0.37343   1.00
C5       0.24700    0.77313    0.35152   1.00
H2       0.25098    0.67930    0.35290   1.00
H2       0.22010    0.79479    0.36022   1.00
H2       0.23653    0.77657    0.33518   1.00
C5       0.32429    0.81376    0.35578   1.00
H2       0.33417    0.80538    0.37173   1.00
H2       0.34473    0.86932    0.35338   1.00
H2       0.35302    0.79836    0.34528   1.00
C5       -0.11106   0.54840    0.33407   1.00
H2       -0.16769   0.52270    0.33316   1.00
H2       -0.09476   0.52070    0.32357   1.00
C5       -0.07821   0.62377    0.32776   1.00
H2       -0.09919   0.62788    0.31293   1.00
C5       0.38815    1.04406    0.45966   1.00
H2       0.43355    1.05278    0.46850   1.00
H2       0.35124    0.98853    0.46075   1.00
C5       0.35764    1.08545    0.46916   1.00
H2       0.32500    1.05813    0.48245   1.00
H2       0.32642    1.09381    0.45772   1.00
O_3      0.39933    1.01636    0.35477   1.00
C4       0.49963    1.02744    0.38220   1.00
C3c      0.46980    1.01622    0.40153   1.00
H1       0.42648    0.96702    0.40518   1.00
C3d      0.55665    1.09160    0.37785   1.00
C3       0.49452    1.06816    0.41628   1.00
O2       0.46817    1.05100    0.43558   1.00
C3       0.58057    1.14382    0.39237   1.00
H1       0.62290    1.19291    0.38809   1.00
C2       0.55054    1.13357    0.41191   1.00
C5       0.42653    1.06502    0.33901   1.00
H2       0.41287    1.04094    0.32371   1.00
H2       0.48325    1.09587    0.34005   1.00
C5       0.39704    1.11198    0.34122   1.00
H2       0.40904    1.13458    0.35673   1.00
H2       0.34046    1.08075    0.33998   1.00
C5       0.42595    1.16819    0.32505   1.00
H2       0.41457    1.14597    0.30953   1.00
H2       0.48217    1.20087    0.32672   1.00
H2       0.40269    1.20109    0.32662   1.00
C5       0.63444    1.08710    0.35688   1.00
C5       0.41310    1.06326    0.43778   1.00
H2       0.61165    1.03114    0.35896   1.00
H2       0.67613    1.11385    0.36822   1.00
H2       0.37148    1.03095    0.42694   1.00
H2       0.42822    1.11763    0.43473   1.00
H2       0.39861    1.13588    0.47493   1.00
H2       0.67128    1.01458    0.32818   1.00
H2       0.74433    1.08022    0.34190   1.00
C2       0.42210    0.87408    0.33595   1.00
C3       0.46971    0.87641    0.35022   1.00
O2       0.50434    0.84173    0.34663   1.00
C3       0.39859    0.92111    0.33800   1.00
H1       0.36084    0.91951    0.32764   1.00
C3a      0.49385    0.92613    0.36570   1.00
H1       0.53316    0.92975    0.37579   1.00
C3b      0.42432    0.97188    0.35301   1.00
C4       0.47243    0.97480    0.36699   1.00
O_3      0.58463    1.10688    0.35858   1.00
C5       0.47553    0.78098    0.35809   1.00
H2       0.47773    0.79175    0.37468   1.00
C5       0.51728    0.74628    0.35356   1.00
H2       0.42132    0.74630    0.35372   1.00
H2       0.56495    0.77170    0.36271   1.00
H2       0.53308    0.75636    0.33734   1.00
C5       0.47772    0.66896    0.35782   1.00
H2       0.45773    0.65966    0.37359   1.00
H2       0.51145    0.64663    0.35599   1.00
H2       0.43449    0.64148    0.34694   1.00
C5       0.66459    1.10599    0.33565   1.00
H2       0.69731    1.16247    0.33478   1.00
H2       0.62201    1.09118    0.32468   1.00
C5       0.70547    1.07070    0.33008   1.00
H2       0.73247    1.09103    0.31545   1.00
C5       0.65554    0.61165    0.45972   1.00
H2       0.61887    0.56619    0.46854   1.00
H2       0.63685    0.64850    0.46081   1.00
C5       0.72741    0.64221    0.46924   1.00
H2       0.73263    0.67478    0.48254   1.00
H2       0.76702    0.67351    0.45782   1.00
O_3      0.61706    0.60083    0.35481   1.00
C4       0.52782    0.50037    0.38220   1.00
C3c      0.54632    0.53013    0.40154   1.00
H1       0.54037    0.57340    0.40520   1.00
C3d      0.53507    0.44342    0.37783   1.00
C3       0.57355    0.50541    0.41629   1.00
O2       0.58262    0.53168    0.43560   1.00
C3       0.56338    0.41951    0.39236   1.00
H1       0.57021    0.37723    0.38807   1.00
C2       0.58305    0.44947    0.41191   1.00
C5       0.63864    0.57375    0.33906   1.00
H2       0.62825    0.58745    0.32375   1.00
H2       0.61283    0.51703    0.34007   1.00
C5       0.71510    0.60333    0.34129   1.00
H2       0.72567    0.59129    0.35679   1.00
H2       0.74039    0.65991    0.34006   1.00
C5       0.74252    0.57454    0.32511   1.00
H2       0.73172    0.58596    0.30959   1.00
H2       0.71904    0.51832    0.32677   1.00
H2       0.79869    0.59787    0.32671   1.00
C5       0.45292    0.36565    0.35683   1.00
C5       0.64991    0.58679    0.43783   1.00
H2       0.41968    0.38836    0.35891   1.00
H2       0.43798    0.32392    0.36816   1.00
H2       0.65920    0.62844    0.42700   1.00
H2       0.68923    0.57176    0.43479   1.00
H2       0.73692    0.60126    0.47500   1.00
H2       0.34364    0.32878    0.32810   1.00
H2       0.33629    0.25573    0.34179   1.00
C2       0.45199    0.57791    0.33595   1.00
C3       0.40669    0.53021    0.35020   1.00
O2       0.33739    0.49551    0.34659   1.00
C3       0.52254    0.60149    0.33802   1.00
H1       0.55871    0.63932    0.32768   1.00
C3a      0.43228    0.50607    0.36567   1.00
H1       0.39658    0.46669    0.37575   1.00
C3b      0.54758    0.57577    0.35303   1.00
C4       0.50239    0.52757    0.36699   1.00
O_3      0.52248    0.41552    0.35856   1.00
C5       0.30535    0.52421    0.35804   1.00
H2       0.31387    0.52196    0.37464   1.00
C5       0.22892    0.48239    0.35348   1.00
H2       0.32482    0.57842    0.35369   1.00
H2       0.20669    0.43468    0.36262   1.00
H2       0.22329    0.46666    0.33726   1.00
C5       0.19106    0.52185    0.35774   1.00
H2       0.20166    0.54177    0.37352   1.00
H2       0.13502    0.48806    0.35590   1.00
H2       0.20680    0.56511    0.34688   1.00
C5       0.44178    0.33559    0.33559   1.00
H2       0.46561    0.30293    0.33472   1.00
H2       0.46956    0.37823    0.32464   1.00
C5       0.36563    0.29465    0.32999   1.00
H2       0.35906    0.26771    0.31535   1.00
C5       0.31823    0.37537    0.29363   1.00
H2       0.36610    0.42355    0.29023   1.00
H2       0.32922    0.33366    0.29043   1.00
C5       0.29951    0.37447    0.31625   1.00
H2       0.32920    0.35852    0.32601   1.00
H2       0.24410    0.33851    0.31856   1.00
O_3      0.06436    0.24735    0.21986   1.00
C4       0.19574    0.36137    0.21536   1.00
C3c      0.23388    0.35926    0.23186   1.00
H1       0.24383    0.31745    0.23322   1.00
C3d      0.18418    0.41681    0.21371   1.00
C3       0.25887    0.41016    0.24693   1.00
O2       0.30266    0.40915    0.26122   1.00
C3       0.20789    0.46688    0.22890   1.00
H1       0.19571    0.50713    0.22736   1.00
C2       0.24591    0.46514    0.24580   1.00
C5       0.01226    0.26168    0.21476   1.00
H2       -0.02313   0.22594    0.20306   1.00
H2       0.03405    0.31477    0.20889   1.00
C5       -0.02830   0.25403    0.23391   1.00
H2       0.00739    0.28834    0.24578   1.00
H2       -0.05034   0.20069    0.23952   1.00
C5       -0.08477   0.27115    0.22986   1.00
H2       -0.12033   0.23740    0.21792   1.00
H2       -0.06267   0.32513    0.22493   1.00
H2       -0.11481   0.26383    0.24391   1.00
C5       0.18203    0.44970    0.18114   1.00
C5       0.26553    0.37266    0.27855   1.00
H2       0.20509    0.41998    0.17508   1.00
H2       0.22364    0.50284    0.18430   1.00
H2       0.22849    0.31872    0.27441   1.00
H2       0.23583    0.39485    0.28548   1.00
H2       0.31221    0.42642    0.32155   1.00
H2       0.17216    0.42361    0.13804   1.00
H2       0.21794    0.51407    0.14406   1.00
C2       0.11187    0.20425    0.17027   1.00
C3       0.17921    0.25914    0.16824   1.00
O2       0.21237    0.27228    0.14982   1.00
C3       0.07474    0.20104    0.18791   1.00
H1       0.02372    0.15876    0.19017   1.00
C3a      0.20702    0.30990    0.18339   1.00
H1       0.25719    0.35359    0.18105   1.00
C3b      0.10174    0.25272    0.20263   1.00
C4       0.16831    0.30780    0.20043   1.00
O_3      0.14264    0.41862    0.19862   1.00
C5       0.25906    0.24822    0.14989   1.00
H2       0.29810    0.27321    0.16207   1.00
C5       0.29436    0.26567    0.12918   1.00
H2       0.23230    0.19194    0.15222   1.00
H2       0.33486    0.32037    0.12925   1.00
H2       0.25596    0.26050    0.11770   1.00
C5       0.32464    0.22010    0.12359   1.00
H2       0.35869    0.22171    0.13598   1.00
H2       0.35471    0.23797    0.10930   1.00
H2       0.28367    0.16615    0.12092   1.00
C5       0.13459    0.45171    0.16515   1.00
H2       0.12090    0.49071    0.16970   1.00
H2       0.08648    0.40149    0.16517   1.00
C5       0.16693    0.46705    0.14387   1.00
H2       0.13407    0.47516    0.13303   1.00
C5       0.38368    0.57961    0.22077   1.00
H2       0.39520    0.56517    0.23573   1.00
H2       0.39758    0.55280    0.20927   1.00
C5       0.30668    0.55562    0.21951   1.00
H2       0.27669    0.50057    0.21547   1.00
H2       0.29764    0.58581    0.20786   1.00
O_3      0.62316    0.89249    0.17990   1.00
C4       0.63962    0.83433    0.21567   1.00
C3c      0.58675    0.76608    0.21561   1.00
H1       0.58524    0.73182    0.20394   1.00
C3d      0.64119    0.87788    0.23118   1.00
C3       0.53469    0.74118    0.23033   1.00
O2       0.48949    0.67211    0.23078   1.00
C3       0.58872    0.85359    0.24563   1.00
H1       0.59077    0.88949    0.25681   1.00
C2       0.53446    0.78490    0.24566   1.00
C5       0.63623    0.95975    0.18281   1.00
H2       0.67540    0.99648    0.17206   1.00
H2       0.65414    0.97761    0.19858   1.00
C5       0.56993    0.95964    0.17917   1.00
H2       0.53027    0.92154    0.18952   1.00
H2       0.55288    0.94234    0.16333   1.00
C5       0.57903    1.03066    0.18274   1.00
H2       0.61890    1.06906    0.17256   1.00
H2       0.59376    1.04697    0.19875   1.00
H2       0.53045    1.02992    0.17958   1.00
C5       0.74840    0.95725    0.24127   1.00
C5       0.43122    0.65678    0.21907   1.00
H2       0.77191    0.93040    0.23354   1.00
H2       0.73725    0.93942    0.25732   1.00
H2       0.44600    0.67156    0.20292   1.00
H2       0.40482    0.68445    0.22447   1.00
H2       0.28662    0.56112    0.23446   1.00
H2       0.89398    1.03221    0.23465   1.00
H2       0.87128    1.02486    0.26135   1.00
C2       0.79502    0.91497    0.17003   1.00
C3       0.80277    0.88278    0.18734   1.00
O2       0.86585    0.89160    0.19234   1.00
C3       0.73375    0.91669    0.16777   1.00
H1       0.72551    0.93939    0.15444   1.00
C3a      0.75064    0.85496    0.20209   1.00
H1       0.75899    0.83397    0.21581   1.00
C3b      0.68296    0.89093    0.18277   1.00
C4       0.69118    0.85988    0.20012   1.00
O_3      0.68916    0.94668    0.23103   1.00
C5       0.86991    0.83367    0.18666   1.00
H2       0.82995    0.78682    0.19443   1.00
C5       0.94054    0.84691    0.19299   1.00
H2       0.86376    0.82541    0.16994   1.00
H2       0.93958    0.83666    0.20954   1.00
H2       0.97702    0.90235    0.19085   1.00
C5       0.96385    0.80383    0.18092   1.00
H2       0.92428    0.74904    0.18192   1.00
H2       1.01261    0.81055    0.18709   1.00
H2       0.97345    0.81970    0.16464   1.00
C5       0.79905    1.03351    0.24105   1.00
H2       0.78061    1.05900    0.25169   1.00
H2       0.79897    1.05331    0.22559   1.00
C5       0.87154    1.04954    0.24673   1.00
H2       0.90540    1.10548    0.24849   1.00
C5       0.39599    0.76023    0.21473   1.00
H2       0.42037    0.79181    0.22840   1.00
H2       0.42138    0.79398    0.20152   1.00
C5       0.40791    0.69864    0.21450   1.00
H2       0.45949    0.71376    0.20847   1.00
H2       0.36876    0.65712    0.20488   1.00
O_3      0.08425    0.72073    0.18392   1.00
C4       0.16583    0.80541    0.21565   1.00
C3c      0.22947    0.80949    0.21353   1.00
H1       0.26012    0.83331    0.20021   1.00
C3d      0.12713    0.77504    0.23325   1.00
C3       0.25414    0.78225    0.22829   1.00
O2       0.32019    0.79549    0.22640   1.00
C3       0.15097    0.74671    0.24779   1.00
H1       0.11843    0.72179    0.26069   1.00
C2       0.21488    0.74973    0.24578   1.00
C5       0.01630    0.67618    0.18999   1.00
H2       -0.02125   0.68080    0.18017   1.00
H2       0.00780    0.68622    0.20599   1.00
C5       0.00351    0.60377    0.18837   1.00
H2       0.04225    0.59967    0.19774   1.00
H2       0.01152    0.59410    0.17231   1.00
C5       -0.06879   0.55192    0.19542   1.00
H2       -0.10773   0.55606    0.18622   1.00
H2       -0.07607   0.56005    0.21166   1.00
H2       -0.07770   0.49923    0.19370   1.00
C5       0.06558    0.82351    0.24425   1.00
C5       0.32112    0.74175    0.21575   1.00
H2       0.09444    0.86921    0.23448   1.00
H2       0.09027    0.83432    0.25949   1.00
H2       0.30023    0.73748    0.20015   1.00
H2       0.28980    0.69123    0.22336   1.00
H2       0.40576    0.67871    0.23016   1.00
H2       0.00728    0.90977    0.23738   1.00
H2       0.02392    0.90348    0.26403   1.00
C2       0.08464    0.88035    0.17024   1.00
C3       0.12838    0.92470    0.18539   1.00
O2       0.13201    0.98648    0.18892   1.00
C3       0.07141    0.81231    0.16993   1.00
H1       0.03956    0.77758    0.15821   1.00
C3a      0.15617    0.89999    0.20003   1.00
H1       0.18640    0.93348    0.21221   1.00
C3b      0.09735    0.78732    0.18488   1.00
C4       0.13998    0.83117    0.20012   1.00
O_3      0.06198    0.76513    0.23535   1.00
C5       0.19161    1.03988    0.18009   1.00
H2       0.23839    1.04212    0.18646   1.00
C5       0.19244    1.10639    0.18494   1.00
H2       0.19144    1.03346    0.16332   1.00
H2       0.21102    1.12158    0.20077   1.00
H2       0.13862    1.09521    0.18470   1.00
C5       0.23647    1.16444    0.17003   1.00
H2       0.28854    1.17124    0.16927   1.00
H2       0.24047    1.21328    0.17502   1.00
H2       0.21349    1.15361    0.15451   1.00
C5       -0.00708   0.80980    0.24660   1.00
H2       -0.03226   0.77199    0.25902   1.00
H2       -0.03548   0.78547    0.23239   1.00
C5       -0.00922   0.87554    0.25090   1.00
H2       -0.06216   0.86280    0.25461   1.00
C5       1.02101    0.59215    0.53314   1.00
H2       1.06247    0.64603    0.53452   1.00
H2       0.97256    0.59314    0.53427   1.00
C5       1.02605    0.56352    0.51230   1.00
H2       1.00250    0.57926    0.50019   1.00
H2       0.99962    0.50684    0.51288   1.00
O_3      0.93371    0.38841    0.61944   1.00
C4       1.02794    0.52919    0.61795   1.00
C3c      1.01810    0.55163    0.59906   1.00
H1       0.97014    0.54916    0.59579   1.00
C3d      1.09117    0.53375    0.62202   1.00
C3       1.06922    0.57657    0.58405   1.00
O2       1.05911    0.60527    0.56695   1.00
C3       1.14168    0.55734    0.60696   1.00
H1       1.18844    0.55765    0.61051   1.00
C2       1.13231    0.57954    0.58770   1.00
C5       0.96101    0.35079    0.62853   1.00
H2       0.92914    0.31885    0.64141   1.00
H2       1.01367    0.38525    0.63430   1.00
C5       0.96344    0.30406    0.61242   1.00
H2       0.99368    0.33581    0.59930   1.00
H2       0.91054    0.26947    0.60691   1.00
C5       0.99487    0.26285    0.62087   1.00
H2       0.96520    0.23139    0.63406   1.00
H2       1.04851    0.29726    0.62573   1.00
H2       0.99484    0.22791    0.60901   1.00
C5       1.12520    0.55805    0.65501   1.00
C5       1.02903    0.55549    0.55154   1.00
H2       1.08689    0.57371    0.65844   1.00
H2       1.17403    0.60420    0.65056   1.00
H2       0.97819    0.51356    0.55660   1.00
H2       1.06069    0.53194    0.54750   1.00
H2       1.08040    0.58381    0.50775   1.00
H2       1.09563    0.56750    0.69711   1.00
H2       1.18458    0.62457    0.69067   1.00
C2       0.87182    0.44574    0.66334   1.00
C3       0.91624    0.51690    0.66221   1.00
O2       0.92159    0.55830    0.67829   1.00
C3       0.87819    0.40382    0.64861   1.00
H1       0.84383    0.34933    0.64874   1.00
C3a      0.96656    0.54413    0.64692   1.00
H1       1.00266    0.59827    0.64696   1.00
C3b      0.92967    0.43083    0.63382   1.00
C4       0.97447    0.50147    0.63291   1.00
O_3      1.10157    0.50759    0.63976   1.00
C5       0.88450    0.59181    0.67422   1.00
H2       0.90380    0.62396    0.66028   1.00
C5       0.89390    0.63734    0.69251   1.00
H2       0.82923    0.55438    0.67216   1.00
H2       0.94447    0.68465    0.69120   1.00
H2       0.89621    0.61013    0.70630   1.00
C5       0.83662    0.65500    0.69450   1.00
H2       0.83147    0.67717    0.68003   1.00
H2       0.84816    0.69263    0.70690   1.00
H2       0.78679    0.60893    0.69841   1.00
C5       1.13710    0.52748    0.67406   1.00
H2       1.18331    0.52281    0.67172   1.00
H2       1.09321    0.47478    0.67595   1.00
C5       1.14484    0.57032    0.69306   1.00
H2       1.16046    0.55062    0.70622   1.00
C5       0.57896    -0.02391   0.53405   1.00
H2       0.58920    -0.06672   0.53584   1.00
H2       0.62920    0.02345    0.53552   1.00
C5       0.54806    -0.02767   0.51283   1.00
H2       0.58877    -0.00530   0.50108   1.00
H2       0.51953    0.00056    0.51286   1.00
O_3      0.45950    0.07013    0.61828   1.00
C4       0.50121    -0.02795   0.61796   1.00
C3c      0.53521    -0.01929   0.59943   1.00
H1       0.58207    0.02774    0.59645   1.00
C3d      0.44075    -0.09001   0.62166   1.00
C3       0.50908    -0.07036   0.58441   1.00
O2       0.54929    -0.06169   0.56775   1.00
C3       0.41391    -0.14044   0.60658   1.00
H1       0.36614    -0.18620   0.60982   1.00
C2       0.44725    -0.13222   0.58767   1.00
C5       0.39389    0.04500    0.62670   1.00
H2       0.39378    0.07752    0.63937   1.00
H2       0.37326    -0.00796   0.63255   1.00
C5       0.34746    0.04455    0.60999   1.00
H2       0.34906    0.01362    0.59709   1.00
H2       0.36818    0.09775    0.60439   1.00
C5       0.27419    0.01552    0.61770   1.00
H2       0.27227    0.04588    0.63068   1.00
H2       0.25262    -0.03839   0.62264   1.00
H2       0.24134    0.01700    0.60540   1.00
C5       0.42625    -0.12428   0.65471   1.00
C5       0.53294    -0.03021   0.55192   1.00
H2       0.48026    -0.08745   0.65859   1.00
H2       0.42205    -0.17400   0.65052   1.00
H2       0.54325    0.02129    0.55678   1.00
H2       0.47806    -0.06021   0.54737   1.00
H2       0.51296    -0.08171   0.50818   1.00
H2       0.46112    -0.09570   0.69710   1.00
H2       0.42689    -0.18512   0.69080   1.00
C2       0.57395    0.12834    0.66329   1.00
C3       0.59834    0.08190    0.66277   1.00
O2       0.63165    0.07496    0.67933   1.00
C3       0.52804    0.12384    0.64799   1.00
H1       0.50981    0.15974    0.64766   1.00
C3a      0.57530    0.03151    0.64751   1.00
H1       0.59141    -0.00607   0.64800   1.00
C3b      0.50355    0.07232    0.63322   1.00
C4       0.52702    0.02553    0.63291   1.00
O_3      0.40264    -0.09908   0.63899   1.00
C5       0.70268    0.10984    0.67594   1.00
H2       0.71593    0.08960    0.66230   1.00
C5       0.73564    0.09877    0.69474   1.00
H2       0.72266    0.16549    0.67378   1.00
H2       0.73046    0.04731    0.69370   1.00
H2       0.70520    0.09766    0.70816   1.00
C5       0.81111    0.15408    0.69734   1.00
H2       0.83960    0.15817    0.68319   1.00
H2       0.83480    0.14123    0.71013   1.00
H2       0.81647    0.20477    0.70098   1.00
C5       0.38216    -0.13463   0.67328   1.00
H2       0.33073    -0.17965   0.67057   1.00
H2       0.37521    -0.08948   0.67479   1.00
C5       0.41413    -0.14397   0.69276   1.00
H2       0.37752    -0.15842   0.70555   1.00
C5       0.39752    0.42132    0.53402   1.00
H2       0.34442    0.41100    0.53579   1.00
H2       0.39470    0.37110    0.53547   1.00
C5       0.42471    0.45232    0.51281   1.00
H2       0.40647    0.41166    0.50105   1.00
H2       0.48147    0.48091    0.51286   1.00
O_3      0.61066    0.54068    0.61832   1.00
C4       0.47083    0.49879    0.61796   1.00
C3c      0.44559    0.46485    0.59942   1.00
H1       0.44585    0.41804    0.59643   1.00
C3d      0.46912    0.55919    0.62167   1.00
C3       0.42065    0.49098    0.58439   1.00
O2       0.38922    0.45082    0.56772   1.00
C3       0.44553    0.58603    0.60659   1.00
H1       0.44746    0.63375    0.60984   1.00
C2       0.42052    0.55275    0.58767   1.00
C5       0.65103    0.60626    0.62676   1.00
H2       0.68364    0.60638    0.63945   1.00
H2       0.61862    0.62681    0.63262   1.00
C5       0.69705    0.65280    0.61008   1.00
H2       0.66454    0.65120    0.59717   1.00
H2       0.72960    0.63216    0.60448   1.00
C5       0.74118    0.72605    0.61781   1.00
H2       0.77343    0.72796    0.63080   1.00
H2       0.70877    0.74753    0.62275   1.00
H2       0.77553    0.75897    0.60553   1.00
C5       0.44918    0.57351    0.65472   1.00
C5       0.43712    0.46729    0.55190   1.00
H2       0.43206    0.51950    0.65859   1.00
H2       0.40364    0.57766    0.65053   1.00
H2       0.47835    0.45704    0.55677   1.00
H2       0.46196    0.52219    0.54737   1.00
H2       0.40573    0.48739    0.50816   1.00
H2       0.44278    0.53849    0.69710   1.00
H2       0.38751    0.57263    0.69080   1.00
C2       0.55438    0.42605    0.66330   1.00
C3       0.48353    0.40157    0.66275   1.00
O2       0.44324    0.36817    0.67930   1.00
C3       0.59580    0.47205    0.64802   1.00
H1       0.64995    0.49035    0.64770   1.00
C3a      0.45619    0.42462    0.64749   1.00
H1       0.40247    0.40843    0.64796   1.00
C3b      0.56878    0.49654    0.63324   1.00
C4       0.49850    0.47298    0.63291   1.00
O_3      0.49806    0.59724    0.63902   1.00
C5       0.40719    0.29715    0.67588   1.00
H2       0.37374    0.28391    0.66222   1.00
C5       0.36309    0.26407    0.69466   1.00
H2       0.44291    0.27724    0.67372   1.00
H2       0.31677    0.26918    0.69361   1.00
H2       0.39235    0.29448    0.70809   1.00
C5       0.34303    0.18861    0.69723   1.00
H2       0.31871    0.16017    0.68307   1.00
H2       0.30644    0.16483    0.71001   1.00
H2       0.38839    0.18332    0.70089   1.00
C5       0.48280    0.61754    0.67331   1.00
H2       0.48916    0.66896    0.67062   1.00
H2       0.53494    0.62457    0.67483   1.00
C5       0.44145    0.58546    0.69277   1.00
H2       0.46352    0.62203    0.70558   1.00
C5       0.29061    -0.31906   0.12407   1.00
H2       0.25253    -0.32037   0.11319   1.00
H2       0.27131    -0.31719   0.13940   1.00
C5       0.29550    -0.38446   0.12164   1.00
H2       0.25342    -0.42790   0.12996   1.00
H2       0.34524    -0.37568   0.12760   1.00
O_3      0.58304    -0.00630   0.14159   1.00
C4       0.47110    -0.02721   0.11773   1.00
C3c      0.41864    -0.09368   0.12212   1.00
H1       0.39740    -0.10600   0.13723   1.00
C3d      0.49740    -0.01197   0.09786   1.00
C3       0.39349    -0.14533   0.10727   1.00
O2       0.33668    -0.20669   0.11197   1.00
C3       0.47337    -0.06360   0.08314   1.00
H1       0.49677    -0.05009   0.06831   1.00
C2       0.42086    -0.13127   0.08738   1.00
C5       0.64575    0.03019    0.13121   1.00
H2       0.68332    0.07639    0.13972   1.00
H2       0.63846    0.04662    0.11591   1.00
C5       0.67486    -0.01702   0.12877   1.00
H2       0.63651    -0.06405   0.12077   1.00
H2       0.68252    -0.03259   0.14414   1.00
C5       0.74220    0.01797    0.11695   1.00
H2       0.78058    0.06523    0.12478   1.00
H2       0.73417    0.03141    0.10135   1.00
H2       0.76346    -0.01678   0.11570   1.00
C5       0.52895    0.09599    0.08753   1.00
C5       0.35667    -0.25235   0.11966   1.00
H2       0.50133    0.10388    0.10024   1.00
H2       0.49437    0.07657    0.07411   1.00
H2       0.38680    -0.23154   0.13389   1.00
H2       0.38911    -0.26143   0.10873   1.00
H2       0.29030    -0.40045   0.10539   1.00
H2       0.56219    0.23408    0.09653   1.00
H2       0.52984    0.20797    0.07092   1.00
C2       0.55499    0.13002    0.16278   1.00
C3       0.49660    0.11807    0.15174   1.00
O2       0.47623    0.16620    0.15151   1.00
C3       0.58244    0.08687    0.15927   1.00
H1       0.62603    0.09355    0.16784   1.00
C3a      0.46834    0.06515    0.13725   1.00
H1       0.42604    0.05915    0.12811   1.00
C3b      0.55555    0.03570    0.14439   1.00
C4       0.49815    0.02456    0.13320   1.00
O_3      0.55251    0.05122    0.09315   1.00
C5       0.42045    0.14667    0.16471   1.00
H2       0.37614    0.09645    0.16021   1.00
C5       0.40029    0.20177    0.16333   1.00
H2       0.43468    0.14295    0.18065   1.00
H2       0.36932    0.19274    0.14935   1.00
H2       0.44801    0.25160    0.16121   1.00
C5       0.36094    0.20389    0.18215   1.00
H2       0.31647    0.15237    0.18496   1.00
H2       0.34224    0.24049    0.17986   1.00
H2       0.39431    0.22144    0.19590   1.00
C5       0.59104    0.16420    0.08215   1.00
H2       0.61172    0.15871    0.06739   1.00
H2       0.63116    0.17614    0.09378   1.00
C5       0.57395    0.22196    0.08117   1.00
H2       0.61835    0.26914    0.07517   1.00
C5       1.05940    0.37466    0.04508   1.00
H2       1.06331    0.41525    0.03478   1.00
H2       1.00528    0.33325    0.04445   1.00
C5       1.10683    0.34850    0.03743   1.00
H2       1.08213    0.31083    0.02495   1.00
H2       1.11921    0.32396    0.05008   1.00
O_3      1.02723    0.41328    0.14853   1.00
C4       1.02736    0.49956    0.11777   1.00
C3c      1.01940    0.46465    0.09946   1.00
H1       0.97276    0.41728    0.09660   1.00
C3d      1.08813    0.56171    0.12107   1.00
C3       1.07144    0.48952    0.08474   1.00
O2       1.05679    0.45712    0.06623   1.00
C3       1.14056    0.58593    0.10661   1.00
H1       1.18719    0.63256    0.11013   1.00
C2       1.13364    0.55089    0.08811   1.00
C5       1.07504    0.44925    0.16400   1.00
H2       1.05104    0.43822    0.17932   1.00
H2       1.10081    0.50541    0.16140   1.00
C5       1.12812    0.42691    0.16364   1.00
H2       1.15075    0.43615    0.14816   1.00
H2       1.10193    0.37089    0.16643   1.00
C5       1.18367    0.46552    0.17959   1.00
H2       1.16136    0.45691    0.19507   1.00
H2       1.21143    0.52125    0.17640   1.00
H2       1.22116    0.44745    0.17940   1.00
C5       1.07377    0.63976    0.13901   1.00
C5       1.07633    0.40679    0.06625   1.00
H2       1.01752    0.61112    0.13686   1.00
H2       1.09717    0.67835    0.12665   1.00
H2       1.04706    0.36743    0.07802   1.00
H2       1.13180    0.42840    0.06961   1.00
H2       1.15521    0.39100    0.03102   1.00
H2       0.99246    0.67378    0.16503   1.00
H2       1.05316    0.74554    0.14980   1.00
C2       0.87421    0.42272    0.16409   1.00
C3       0.87120    0.46295    0.14820   1.00
O2       0.83044    0.49197    0.14994   1.00
C3       0.92663    0.40601    0.16367   1.00
H1       0.92930    0.37385    0.17532   1.00
C3a      0.92098    0.48679    0.13274   1.00
H1       0.92026    0.52072    0.12134   1.00
C3b      0.97732    0.43159    0.14864   1.00
C4       0.97488    0.47244    0.13303   1.00
O_3      1.10060    0.59537    0.13946   1.00
C5       0.77001    0.45432    0.13861   1.00
H2       0.78137    0.45268    0.12220   1.00
C5       0.72837    0.49024    0.14103   1.00
H2       0.73985    0.40103    0.14437   1.00
H2       0.74962    0.53489    0.13060   1.00
H2       0.73686    0.51104    0.15674   1.00
C5       0.65164    0.44275    0.13697   1.00
H2       0.64447    0.41829    0.12187   1.00
H2       0.62404    0.47192    0.13719   1.00
H2       0.62766    0.40250    0.14891   1.00
C5       1.08976    0.67648    0.15934   1.00
H2       1.14538    0.71405    0.15993   1.00
H2       1.07906    0.63840    0.17155   1.00
C5       1.04757    0.71183    0.16281   1.00
H2       1.06556    0.74382    0.17670   1.00
C5       0.61125    0.65479    0.04017   1.00
H2       0.56568    0.61812    0.03139   1.00
H2       0.64798    0.63594    0.03908   1.00
C5       0.64190    0.72659    0.03060   1.00
H2       0.67434    0.73162    0.01728   1.00
H2       0.67337    0.76626    0.04199   1.00
O_3      0.60117    0.61711    0.14510   1.00
C4       0.50037    0.52782    0.11780   1.00
C3c      0.52998    0.54610    0.09844   1.00
H1       0.57314    0.53998    0.09476   1.00
C3d      0.44356    0.53529    0.12219   1.00
C3       0.50527    0.57333    0.08368   1.00
O2       0.53137    0.58219    0.06436   1.00
C3       0.41966    0.56360    0.10766   1.00
H1       0.37750    0.57061    0.11197   1.00
C2       0.44947    0.58305    0.08809   1.00
C5       0.57432    0.63893    0.16086   1.00
H2       0.58809    0.62860    0.17616   1.00
H2       0.51760    0.61324    0.15988   1.00
C5       0.60407    0.71540    0.15858   1.00
H2       0.59196    0.72589    0.14307   1.00
H2       0.66065    0.74056    0.15976   1.00
C5       0.57554    0.74307    0.17475   1.00
H2       0.58704    0.73235    0.19027   1.00
H2       0.51932    0.71971    0.17313   1.00
H2       0.59900    0.79924    0.17312   1.00
C5       0.36583    0.45342    0.14327   1.00
C5       0.58659    0.64940    0.06207   1.00
H2       0.38838    0.42004    0.14119   1.00
H2       0.32403    0.43850    0.13197   1.00
H2       0.62829    0.65866    0.07288   1.00
H2       0.57173    0.68884    0.06510   1.00
H2       0.60100    0.73620    0.02485   1.00
H2       0.32891    0.34432    0.17207   1.00
H2       0.25584    0.33707    0.15841   1.00
C2       0.57792    0.45201    0.16405   1.00
C3       0.53004    0.40667    0.14984   1.00
O2       0.49522    0.33740    0.15350   1.00
C3       0.60167    0.52257    0.16193   1.00
H1       0.63963    0.55876    0.17224   1.00
C3a      0.50590    0.43225    0.13437   1.00
H1       0.46639    0.39653    0.12433   1.00
C3b      0.57594    0.54761    0.14693   1.00
C4       0.52757    0.50238    0.13301   1.00
O_3      0.41582    0.52292    0.14148   1.00
C5       0.52368    0.30512    0.14205   1.00
H2       0.52133    0.31353    0.12545   1.00
C5       0.48173    0.22875    0.14667   1.00
H2       0.57790    0.32450    0.14637   1.00
H2       0.43396    0.20656    0.13756   1.00
H2       0.46614    0.22328    0.16289   1.00
C5       0.52098    0.19067    0.14240   1.00
H2       0.54077    0.20110    0.12661   1.00
H2       0.48709    0.13466    0.14429   1.00
H2       0.56431    0.20639    0.15324   1.00
C5       0.33595    0.44253    0.16453   1.00
H2       0.30342    0.46650    0.16540   1.00
H2       0.37869    0.47030    0.17545   1.00
C5       0.29488    0.36643    0.17018   1.00
H2       0.26809    0.36005    0.18484   1.00
C5       0.34528    0.64600    0.70863   1.00
H2       0.34020    0.60366    0.71835   1.00
H2       0.34532    0.62968    0.69275   1.00
C5       0.28377    0.65674    0.71226   1.00
H2       0.23857    0.61922    0.70342   1.00
H2       0.29701    0.70924    0.70766   1.00
O_3      0.67040    0.92511    0.69483   1.00
C4       0.63940    0.80436    0.71559   1.00
C3c      0.57133    0.75724    0.71074   1.00
H1       0.55773    0.74020    0.69524   1.00
C3d      0.65621    0.82516    0.73593   1.00
C3       0.51978    0.73216    0.72562   1.00
O2       0.45613    0.68009    0.72023   1.00
C3       0.60479    0.80129    0.75071   1.00
H1       0.61974    0.82053    0.76596   1.00
C2       0.53558    0.75419    0.74602   1.00
C5       0.71100    0.98425    0.70644   1.00
H2       0.75854    1.02115    0.69834   1.00
H2       0.72571    0.97113    0.72120   1.00
C5       0.66909    1.01846    0.71051   1.00
H2       0.62070    0.98097    0.71810   1.00
H2       0.65524    1.03190    0.69568   1.00
C5       0.70872    1.08220    0.72373   1.00
H2       0.75733    1.11966    0.71631   1.00
H2       0.72051    1.06851    0.73881   1.00
H2       0.67786    1.10734    0.72617   1.00
C5       0.76148    0.84501    0.74540   1.00
C5       0.41490    0.70728    0.71391   1.00
H2       0.76638    0.81876    0.73179   1.00
H2       0.73957    0.80739    0.75806   1.00
H2       0.43771    0.74033    0.70030   1.00
H2       0.40937    0.73911    0.72591   1.00
H2       0.26795    0.64866    0.72856   1.00
H2       0.89566    0.86871    0.73518   1.00
H2       0.86751    0.83091    0.76016   1.00
C2       0.79702    0.88830    0.67066   1.00
C3       0.77988    0.82578    0.68011   1.00
O2       0.82349    0.79989    0.67896   1.00
C3       0.75879    0.92012    0.67568   1.00
H1       0.76947    0.96710    0.66833   1.00
C3a      0.72683    0.79768    0.69457   1.00
H1       0.71692    0.75184    0.70251   1.00
C3b      0.70753    0.89317    0.69054   1.00
C4       0.69125    0.83157    0.70014   1.00
O_3      0.72142    0.87529    0.74123   1.00
C5       0.79965    0.74707    0.66445   1.00
H2       0.74770    0.70457    0.66843   1.00
C5       0.84988    0.72044    0.66433   1.00
H2       0.79768    0.76637    0.64906   1.00
H2       0.83815    0.68544    0.67748   1.00
H2       0.90174    0.76481    0.66706   1.00
C5       0.84823    0.68411    0.64438   1.00
H2       0.79509    0.64346    0.64109   1.00
H2       0.88105    0.66053    0.64551   1.00
H2       0.86825    0.72073    0.63139   1.00
C5       0.83214    0.90174    0.75151   1.00
H2       0.82881    0.92000    0.76692   1.00
H2       0.84749    0.94539    0.74093   1.00
C5       0.88518    0.87816    0.75104   1.00
H2       0.93417    0.91833    0.75758   1.00
C5       0.42855    0.60569    0.72406   1.00
H2       0.40739    0.64056    0.72468   1.00
H2       0.44418    0.60635    0.70805   1.00
C5       0.49106    0.63250    0.73831   1.00
H2       0.53753    0.67367    0.73081   1.00
H2       0.50028    0.59019    0.74253   1.00
O_3      0.19918    0.25740    0.71682   1.00
C4       0.16514    0.36107    0.71545   1.00
C3c      0.22700    0.42228    0.71282   1.00
H1       0.25604    0.43057    0.69905   1.00
C3d      0.12759    0.35168    0.73338   1.00
C3       0.25282    0.47313    0.72791   1.00
O2       0.30920    0.53486    0.72325   1.00
C3       0.15380    0.40165    0.74860   1.00
H1       0.12439    0.39115    0.76240   1.00
C2       0.21664    0.46354    0.74628   1.00
C5       0.16079    0.20672    0.73136   1.00
H2       0.13401    0.15459    0.72462   1.00
H2       0.12185    0.21626    0.73865   1.00
C5       0.20992    0.20913    0.74747   1.00
H2       0.23808    0.26176    0.75381   1.00
H2       0.24816    0.19891    0.74006   1.00
C5       0.17190    0.15704    0.76433   1.00
H2       0.14329    0.10443    0.75808   1.00
H2       0.13540    0.16862    0.77220   1.00
H2       0.20880    0.15852    0.77573   1.00
C5       0.01226    0.29133    0.72899   1.00
C5       0.36907    0.53510    0.72948   1.00
H2       0.01666    0.29707    0.71221   1.00
H2       0.00622    0.33357    0.73543   1.00
H2       0.37397    0.49468    0.72126   1.00
H2       0.36925    0.52522    0.74610   1.00
H2       0.48340    0.65537    0.75239   1.00
H2       -0.10589   0.20203    0.70498   1.00
H2       -0.12174   0.25495    0.72233   1.00
C2       0.08777    0.20140    0.67114   1.00
C3       0.07299    0.25485    0.66953   1.00
O2       0.02093    0.24811    0.65712   1.00
C3       0.13108    0.20401    0.68701   1.00
H1       0.14479    0.16481    0.68834   1.00
C3a      0.09996    0.30810    0.68394   1.00
H1       0.08503    0.34654    0.68318   1.00
C3b      0.15603    0.25586    0.70168   1.00
C4       0.14044    0.30839    0.70026   1.00
O_3      0.06907    0.29032    0.73738   1.00
C5       0.04777    0.28457    0.63891   1.00
H2       0.08276    0.33998    0.64190   1.00
C5       -0.01276   0.27555    0.62619   1.00
H2       0.07631    0.26430    0.63036   1.00
H2       -0.02918   0.31126    0.63200   1.00
H2       -0.05589   0.22303    0.62901   1.00
C5       0.00354    0.28713    0.60334   1.00
H2       0.04995    0.33763    0.60096   1.00
H2       -0.03959   0.28582    0.59484   1.00
H2       0.01166    0.24627    0.59672   1.00
C5       -0.05084   0.22354    0.73407   1.00
H2       -0.06182   0.22306    0.75056   1.00
H2       -0.03879   0.18210    0.73144   1.00
C5       -0.11286   0.21097    0.72123   1.00
H2       -0.15938   0.16482    0.72678   1.00
C5       0.18760    0.57581    0.72217   1.00
H2       0.24378    0.59887    0.72332   1.00
H2       0.17483    0.56176    0.70597   1.00
C5       0.15233    0.51152    0.73574   1.00
H2       0.14986    0.46678    0.72791   1.00
H2       0.09965    0.49975    0.73955   1.00
O_3      0.05666    0.79540    0.71565   1.00
C4       0.19592    0.83489    0.71546   1.00
C3c      0.19834    0.77476    0.71241   1.00
H1       0.18001    0.74709    0.69831   1.00
C3d      0.22095    0.87070    0.73382   1.00
C3       0.22334    0.74888    0.72750   1.00
O2       0.23186    0.69460    0.72250   1.00
C3       0.24467    0.84437    0.74902   1.00
H1       0.26110    0.87232    0.76313   1.00
C2       0.24678    0.78324    0.74628   1.00
C5       0.04075    0.83065    0.73034   1.00
H2       0.01443    0.85647    0.72361   1.00
H2       0.08767    0.86996    0.73822   1.00
C5       -0.00658   0.77872    0.74579   1.00
H2       0.01896    0.75156    0.75210   1.00
H2       -0.05350   0.74011    0.73779   1.00
C5       -0.02457   0.81325    0.76279   1.00
H2       -0.04965   0.84087    0.75658   1.00
H2       0.02199    0.85010    0.77124   1.00
H2       -0.06038   0.77432    0.77369   1.00
C5       0.27240    0.98627    0.73058   1.00
C5       0.17296    0.63277    0.72791   1.00
H2       0.27587    0.98400    0.71380   1.00
H2       0.32071    0.99355    0.73740   1.00
H2       0.12783    0.62695    0.71935   1.00
H2       0.16081    0.63020    0.74445   1.00
H2       0.18156    0.51869    0.75008   1.00
H2       0.29928    1.10574    0.70758   1.00
H2       0.36683    1.12223    0.72550   1.00
C2       0.11342    0.91200    0.67113   1.00
C3       0.18261    0.92963    0.67010   1.00
O2       0.22797    0.98393    0.65835   1.00
C3       0.07201    0.86605    0.68642   1.00
H1       0.01845    0.85017    0.68729   1.00
C3a      0.20903    0.90277    0.68449   1.00
H1       0.26295    0.91980    0.68421   1.00
C3b      0.09894    0.84115    0.70110   1.00
C4       0.16796    0.85955    0.70025   1.00
O_3      0.21496    0.92726    0.73819   1.00
C5       0.24106    0.96028    0.64004   1.00
H2       0.26314    0.92665    0.64294   1.00
C5       0.29238    1.02316    0.62810   1.00
H2       0.19347    0.93126    0.63097   1.00
H2       0.34422    1.04081    0.63437   1.00
H2       0.28053    1.06453    0.63114   1.00
C5       0.29088    1.00970    0.60512   1.00
H2       0.29742    0.96484    0.60246   1.00
H2       0.33261    1.05466    0.59721   1.00
H2       0.24198    1.00038    0.59812   1.00
C5       0.26421    1.04710    0.73605   1.00
H2       0.27257    1.05635    0.75267   1.00
H2       0.21042    1.03327    0.73297   1.00
C5       0.31337    1.11135    0.72397   1.00
H2       0.31103    1.15614    0.72983   1.00
