data_IRMOF10_interpen_symm_ligand4lp_label_m_1.

_audit_creation_method             'generated by an auxiliary program of Tobunporous'

_symmetry_space_group_name_H-M     'P 1'
_symmetry_Int_Tables_number        1
_symmetry_cell_setting             triclinic

_cell_length_a                    22.6523
_cell_length_b                    22.6523
_cell_length_c                    65.9502
_cell_angle_alpha                 90.0000
_cell_angle_beta                  90.0000
_cell_angle_gamma                 120.0000

loop_
_atom_site_label
_atom_site_fract_x
_atom_site_fract_y
_atom_site_fract_z
_atom_site_occupancy
O1       0.00000    -0.00000   0.62500   1.00
Zn1      0.00000    -0.00000   0.59589   1.00
Zn1      0.94848    1.04288    0.63392   1.00
Zn1      0.09439    0.05152    0.63392   1.00
Zn1      -0.04288   0.90561    0.63392   1.00
O2       0.93860    0.02610    0.58587   1.00
O2       0.08750    0.06140    0.58587   1.00
O2       -0.02610   0.91250    0.58587   1.00
O2       0.91305    0.07161    0.61181   1.00
O2       0.00462    0.12022    0.65110   1.00
O2       0.87413    0.98074    0.65071   1.00
O2       0.15856    0.08695    0.61181   1.00
O2       0.10660    0.12587    0.65071   1.00
O2       0.11559    0.99538    0.65110   1.00
O2       -0.07161   0.84144    0.61181   1.00
O2       0.87978    0.88441    0.65110   1.00
O2       0.01926    0.89340    0.65071   1.00
C1       0.91390    0.06020    0.59358   1.00
C1       0.14630    0.08610    0.59358   1.00
C1       -0.06020   0.85370    0.59358   1.00
C1       0.06663    0.14397    0.65673   1.00
C1       0.85603    0.92267    0.65673   1.00
C1       0.07733    0.93337    0.65673   1.00
O1       -0.00000   0.00000    0.87500   1.00
Zn1      -0.00000   0.00000    0.90411   1.00
Zn1      1.04288    0.94848    0.86608   1.00
Zn1      0.05152    0.09439    0.86608   1.00
Zn1      0.90561    -0.04288   0.86608   1.00
O2       0.02610    0.93860    0.91413   1.00
O2       0.06140    0.08750    0.91413   1.00
O2       0.91250    -0.02610   0.91413   1.00
O2       0.07161    0.91305    0.88819   1.00
O2       0.12022    0.00462    0.84890   1.00
O2       0.98074    0.87413    0.84929   1.00
O2       0.08695    0.15856    0.88819   1.00
O2       0.12587    0.10660    0.84929   1.00
O2       0.99538    0.11559    0.84890   1.00
O2       0.84144    -0.07161   0.88819   1.00
O2       0.88441    0.87978    0.84890   1.00
O2       0.89340    0.01926    0.84929   1.00
C1       0.06020    0.91390    0.90642   1.00
C1       0.08610    0.14630    0.90642   1.00
C1       0.85370    -0.06020   0.90642   1.00
C1       0.14397    0.06663    0.84327   1.00
C1       0.92267    0.85603    0.84327   1.00
C1       0.93337    0.07733    0.84327   1.00
O1       0.00000    0.00000    0.37500   1.00
Zn1      0.00000    0.00000    0.40411   1.00
Zn1      0.05152    -0.04288   0.36608   1.00
Zn1      0.90561    0.94848    0.36608   1.00
Zn1      1.04288    0.09439    0.36608   1.00
O2       0.06140    -0.02610   0.41413   1.00
O2       0.91250    0.93860    0.41413   1.00
O2       0.02610    0.08750    0.41413   1.00
O2       0.08695    -0.07161   0.38819   1.00
O2       0.99538    0.87978    0.34890   1.00
O2       0.12587    0.01926    0.34929   1.00
O2       0.84144    0.91305    0.38819   1.00
O2       0.89340    0.87413    0.34929   1.00
O2       0.88441    0.00462    0.34890   1.00
O2       0.07161    0.15856    0.38819   1.00
O2       0.12022    0.11559    0.34890   1.00
O2       0.98074    0.10660    0.34929   1.00
C1       0.08610    -0.06020   0.40642   1.00
C1       0.85370    0.91390    0.40642   1.00
C1       0.06020    0.14630    0.40642   1.00
C1       0.93337    0.85603    0.34327   1.00
C1       0.14397    0.07733    0.34327   1.00
C1       0.92267    0.06663    0.34327   1.00
O1       0.00000    0.00000    0.12500   1.00
Zn1      0.00000    0.00000    0.09589   1.00
Zn1      -0.04288   0.05152    0.13392   1.00
Zn1      0.94848    0.90561    0.13392   1.00
Zn1      0.09439    1.04288    0.13392   1.00
O2       -0.02610   0.06140    0.08587   1.00
O2       0.93860    0.91250    0.08587   1.00
O2       0.08750    0.02610    0.08587   1.00
O2       -0.07161   0.08695    0.11181   1.00
O2       0.87978    0.99538    0.15110   1.00
O2       0.01926    0.12587    0.15071   1.00
O2       0.91305    0.84144    0.11181   1.00
O2       0.87413    0.89340    0.15071   1.00
O2       0.00462    0.88441    0.15110   1.00
O2       0.15856    0.07161    0.11181   1.00
O2       0.11559    0.12022    0.15110   1.00
O2       0.10660    0.98074    0.15071   1.00
C1       -0.06020   0.08610    0.09358   1.00
C1       0.91390    0.85370    0.09358   1.00
C1       0.14630    0.06020    0.09358   1.00
C1       0.85603    0.93337    0.15673   1.00
C1       0.07733    0.14397    0.15673   1.00
C1       0.06663    0.92267    0.15673   1.00
O1       0.66667    0.33333    0.95833   1.00
Zn1      0.66667    0.33333    0.92922   1.00
Zn1      0.61515    0.37621    0.96725   1.00
Zn1      0.76106    0.38485    0.96725   1.00
Zn1      -0.37621   0.23894    0.96725   1.00
O2       0.60527    0.35943    0.91920   1.00
O2       0.75417    0.39473    0.91920   1.00
O2       0.64057    0.24583    0.91920   1.00
O2       0.57972    0.40494    0.94514   1.00
O2       0.67129    0.45355    0.98443   1.00
O2       0.54080    0.31407    0.98404   1.00
O2       0.82523    0.42028    0.94514   1.00
O2       0.77327    0.45920    0.98404   1.00
O2       -0.21774   0.32871    0.98443   1.00
O2       0.59506    0.17477    0.94514   1.00
O2       0.54645    0.21774    0.98443   1.00
O2       -0.31407   0.22673    0.98404   1.00
C1       0.58057    0.39353    0.92691   1.00
C1       0.81297    0.41943    0.92691   1.00
C1       0.60647    0.18703    0.92691   1.00
C1       0.73330    0.47730    0.99006   1.00
C1       0.52270    0.25600    0.99006   1.00
C1       -0.25600   0.26670    0.99006   1.00
O1       0.66667    0.33333    0.20833   1.00
Zn1      0.66667    0.33333    0.23744   1.00
Zn1      0.70954    0.28182    0.19942   1.00
Zn1      0.71818    0.42773    0.19942   1.00
Zn1      0.57227    0.29046    0.19942   1.00
O2       0.69277    0.27193    0.24746   1.00
O2       0.72807    0.42083    0.24746   1.00
O2       0.57917    0.30723    0.24746   1.00
O2       0.73828    0.24638    0.22152   1.00
O2       0.78688    0.33796    0.18224   1.00
O2       0.64740    0.20747    0.18263   1.00
O2       0.75362    0.49189    0.22152   1.00
O2       0.79253    0.43994    0.18263   1.00
O2       0.66204    0.44893    0.18224   1.00
O2       0.50811    0.26172    0.22152   1.00
O2       0.55107    0.21312    0.18224   1.00
O2       0.56006    0.35260    0.18263   1.00
C1       0.72687    0.24723    0.23975   1.00
C1       0.75277    0.47963    0.23975   1.00
C1       0.52037    0.27313    0.23975   1.00
C1       0.81063    0.39997    0.17661   1.00
C1       0.58933    0.18937    0.17661   1.00
C1       0.60003    0.41067    0.17661   1.00
O1       0.66667    0.33333    0.70833   1.00
Zn1      0.66667    0.33333    0.73744   1.00
Zn1      0.71818    0.29046    0.69942   1.00
Zn1      0.57227    0.28182    0.69942   1.00
Zn1      0.70954    0.42773    0.69942   1.00
O2       0.72807    0.30723    0.74746   1.00
O2       0.57917    0.27193    0.74746   1.00
O2       0.69277    0.42083    0.74746   1.00
O2       0.75362    0.26172    0.72152   1.00
O2       0.66204    0.21312    0.68224   1.00
O2       0.79253    0.35260    0.68263   1.00
O2       0.50811    0.24638    0.72152   1.00
O2       0.56006    0.20747    0.68263   1.00
O2       0.55107    0.33796    0.68224   1.00
O2       0.73828    0.49189    0.72152   1.00
O2       0.78688    0.44893    0.68224   1.00
O2       0.64740    0.43994    0.68263   1.00
C1       0.75277    0.27313    0.73975   1.00
C1       0.52037    0.24723    0.73975   1.00
C1       0.72687    0.47963    0.73975   1.00
C1       0.60003    0.18937    0.67661   1.00
C1       0.81063    0.41067    0.67661   1.00
C1       0.58933    0.39997    0.67661   1.00
O1       0.66667    0.33333    0.45833   1.00
Zn1      0.66667    0.33333    0.42922   1.00
Zn1      -0.37621   0.38485    0.46725   1.00
Zn1      0.61515    0.23894    0.46725   1.00
Zn1      0.76106    0.37621    0.46725   1.00
O2       0.64057    0.39473    0.41920   1.00
O2       0.60527    0.24583    0.41920   1.00
O2       0.75417    0.35943    0.41920   1.00
O2       0.59506    0.42028    0.44514   1.00
O2       0.54645    0.32871    0.48443   1.00
O2       -0.31407   0.45920    0.48404   1.00
O2       0.57972    0.17477    0.44514   1.00
O2       0.54080    0.22673    0.48404   1.00
O2       0.67129    0.21774    0.48443   1.00
O2       0.82523    0.40494    0.44514   1.00
O2       -0.21774   0.45355    0.48443   1.00
O2       0.77327    0.31407    0.48404   1.00
C1       0.60647    0.41943    0.42691   1.00
C1       0.58057    0.18703    0.42691   1.00
C1       0.81297    0.39353    0.42691   1.00
C1       0.52270    0.26670    0.49006   1.00
C1       -0.25600   0.47730    0.49006   1.00
C1       0.73330    0.25600    0.49006   1.00
O1       0.33333    0.66667    0.29167   1.00
Zn1      0.33333    0.66667    0.26256   1.00
Zn1      0.28182    0.70954    0.30058   1.00
Zn1      0.42773    0.71818    0.30058   1.00
Zn1      0.29046    0.57227    0.30058   1.00
O2       0.27193    0.69277    0.25254   1.00
O2       0.42083    0.72807    0.25254   1.00
O2       0.30723    0.57917    0.25254   1.00
O2       0.24638    0.73828    0.27848   1.00
O2       0.33796    0.78688    0.31776   1.00
O2       0.20747    0.64740    0.31737   1.00
O2       0.49189    0.75362    0.27848   1.00
O2       0.43994    0.79253    0.31737   1.00
O2       0.44893    0.66204    0.31776   1.00
O2       0.26172    0.50811    0.27848   1.00
O2       0.21312    0.55107    0.31776   1.00
O2       0.35260    0.56006    0.31737   1.00
C1       0.24723    0.72687    0.26025   1.00
C1       0.47963    0.75277    0.26025   1.00
C1       0.27313    0.52037    0.26025   1.00
C1       0.39997    0.81063    0.32339   1.00
C1       0.18937    0.58933    0.32339   1.00
C1       0.41067    0.60003    0.32339   1.00
O1       0.33333    0.66667    0.54167   1.00
Zn1      0.33333    0.66667    0.57078   1.00
Zn1      0.37621    0.61515    0.53275   1.00
Zn1      0.38485    0.76106    0.53275   1.00
Zn1      0.23894    -0.37621   0.53275   1.00
O2       0.35943    0.60527    0.58080   1.00
O2       0.39473    0.75417    0.58080   1.00
O2       0.24583    0.64057    0.58080   1.00
O2       0.40494    0.57972    0.55486   1.00
O2       0.45355    0.67129    0.51557   1.00
O2       0.31407    0.54080    0.51596   1.00
O2       0.42028    0.82523    0.55486   1.00
O2       0.45920    0.77327    0.51596   1.00
O2       0.32871    -0.21774   0.51557   1.00
O2       0.17477    0.59506    0.55486   1.00
O2       0.21774    0.54645    0.51557   1.00
O2       0.22673    -0.31407   0.51596   1.00
C1       0.39353    0.58057    0.57309   1.00
C1       0.41943    0.81297    0.57309   1.00
C1       0.18703    0.60647    0.57309   1.00
C1       0.47730    0.73330    0.50994   1.00
C1       0.25600    0.52270    0.50994   1.00
C1       0.26670    -0.25600   0.50994   1.00
O1       0.33333    0.66667    0.04167   1.00
Zn1      0.33333    0.66667    0.07078   1.00
Zn1      0.38485    -0.37621   0.03275   1.00
Zn1      0.23894    0.61515    0.03275   1.00
Zn1      0.37621    0.76106    0.03275   1.00
O2       0.39473    0.64057    0.08080   1.00
O2       0.24583    0.60527    0.08080   1.00
O2       0.35943    0.75417    0.08080   1.00
O2       0.42028    0.59506    0.05486   1.00
O2       0.32871    0.54645    0.01557   1.00
O2       0.45920    -0.31407   0.01596   1.00
O2       0.17477    0.57972    0.05486   1.00
O2       0.22673    0.54080    0.01596   1.00
O2       0.21774    0.67129    0.01557   1.00
O2       0.40494    0.82523    0.05486   1.00
O2       0.45355    -0.21774   0.01557   1.00
O2       0.31407    0.77327    0.01596   1.00
C1       0.41943    0.60647    0.07309   1.00
C1       0.18703    0.58057    0.07309   1.00
C1       0.39353    0.81297    0.07309   1.00
C1       0.26670    0.52270    0.00994   1.00
C1       0.47730    -0.25600   0.00994   1.00
C1       0.25600    0.73330    0.00994   1.00
O1       0.33333    0.66667    0.79167   1.00
Zn1      0.33333    0.66667    0.76256   1.00
Zn1      0.29046    0.71818    0.80058   1.00
Zn1      0.28182    0.57227    0.80058   1.00
Zn1      0.42773    0.70954    0.80058   1.00
O2       0.30723    0.72807    0.75254   1.00
O2       0.27193    0.57917    0.75254   1.00
O2       0.42083    0.69277    0.75254   1.00
O2       0.26172    0.75362    0.77848   1.00
O2       0.21312    0.66204    0.81776   1.00
O2       0.35260    0.79253    0.81737   1.00
O2       0.24638    0.50811    0.77848   1.00
O2       0.20747    0.56006    0.81737   1.00
O2       0.33796    0.55107    0.81776   1.00
O2       0.49189    0.73828    0.77848   1.00
O2       0.44893    0.78688    0.81776   1.00
O2       0.43994    0.64740    0.81737   1.00
C1       0.27313    0.75277    0.76025   1.00
C1       0.24723    0.52037    0.76025   1.00
C1       0.47963    0.72687    0.76025   1.00
C1       0.18937    0.60003    0.82339   1.00
C1       0.41067    0.81063    0.82339   1.00
C1       0.39997    0.58933    0.82339   1.00
C4       -0.15752   0.64046    0.53490   1.00
C4       -0.13790   0.69143    0.55026   1.00
C3       -0.13563   0.59140    0.53507   1.00
C3       -0.10111   0.69251    0.56792   1.00
C3       -0.20056   0.63773    0.51863   1.00
C3       -0.15541   0.74367    0.54813   1.00
C2       -0.19986   0.53526    0.50441   1.00
C2       -0.09529   0.79641    0.58083   1.00
C3       -0.15635   0.54015    0.52036   1.00
C3       -0.08010   0.74353    0.58271   1.00
C3       -0.22082   0.58451    0.50402   1.00
C3       -0.13272   0.79491    0.56348   1.00
H1       -0.10325   0.59148    0.54576   1.00
H1       -0.08878   0.65588    0.57080   1.00
C5       -0.22192   0.68748    0.51718   1.00
C5       -0.19486   0.74363    0.53111   1.00
H1       -0.13900   0.50614    0.52138   1.00
H1       -0.05347   0.74158    0.59505   1.00
H1       -0.25177   0.58061    0.49230   1.00
H1       -0.14377   0.83315    0.56244   1.00
C6       -0.27322   0.67969    0.50115   1.00
C6       -0.20676   0.80310    0.52794   1.00
H2       -0.31373   0.62654    0.50057   1.00
H2       -0.15924   0.85052    0.53065   1.00
H2       -0.30123   0.70509    0.50553   1.00
H2       -0.21648   0.80855    0.51210   1.00
C6       -0.24035   0.70637    0.47976   1.00
C6       -0.26651   0.79839    0.54116   1.00
H2       -0.20422   0.68893    0.47650   1.00
H2       -0.26257   0.78308    0.55660   1.00
C6       -0.28962   0.68738    0.46118   1.00
C6       -0.27368   0.86354    0.54260   1.00
H2       -0.20954   0.76190    0.48061   1.00
H2       -0.31418   0.75666    0.53519   1.00
C6       -0.32762   0.60961    0.45688   1.00
C6       -0.21251   0.92237    0.55394   1.00
C6       -0.34249   0.71096    0.46430   1.00
C6       -0.28049   0.88875    0.52135   1.00
C6       -0.24671   0.72402    0.44208   1.00
C6       -0.33923   0.84541    0.55482   1.00
H2       -0.29171   0.59114    0.45493   1.00
H2       -0.20564   0.90585    0.56888   1.00
H2       -0.36209   0.58088    0.46921   1.00
H2       -0.16516   0.94057    0.54552   1.00
H2       -0.35818   0.59747    0.44309   1.00
H2       -0.22024   0.96581    0.55610   1.00
H2       -0.37338   0.70189    0.45070   1.00
H2       -0.29034   0.93114    0.52257   1.00
H2       -0.37711   0.68323    0.47673   1.00
H2       -0.23377   0.90659    0.51260   1.00
H2       -0.31709   0.76531    0.46777   1.00
H2       -0.32233   0.84785    0.51288   1.00
H2       -0.20895   0.70856    0.43907   1.00
H2       -0.33672   0.82794    0.57006   1.00
H2       -0.27889   0.71195    0.42864   1.00
H2       -0.34624   0.88953    0.55635   1.00
H2       -0.21968   0.77928    0.44403   1.00
H2       -0.38445   0.80502    0.54735   1.00
C4       0.35657    0.19738    0.53393   1.00
C4       0.30430    0.16576    0.54892   1.00
C3       0.42466    0.24792    0.53892   1.00
C3       0.31799    0.17711    0.57009   1.00
C3       0.34105    0.17845    0.51309   1.00
C3       0.23543    0.12083    0.54277   1.00
C2       0.46311    0.25896    0.50378   1.00
C2       0.19813    0.10447    0.57919   1.00
C3       0.47647    0.27759    0.52435   1.00
C3       0.26658    0.14773    0.58478   1.00
C3       0.39536    0.20961    0.49874   1.00
C3       0.18450    0.09224    0.55821   1.00
H1       0.43901    0.26556    0.55329   1.00
H1       0.36595    0.20661    0.57563   1.00
C5       0.27279    0.12997    0.50703   1.00
C5       0.21894    0.10519    0.52173   1.00
H1       0.52460    0.31354    0.52893   1.00
H1       0.27975    0.15816    0.59980   1.00
H1       0.38643    0.19713    0.48380   1.00
H1       0.13489    0.06043    0.55443   1.00
C6       0.25861    0.10505    0.48530   1.00
C6       0.14503    0.06347    0.51529   1.00
H2       0.29820    0.09444    0.48026   1.00
H2       0.11521    0.08147    0.52346   1.00
H2       0.21323    0.05502    0.48413   1.00
H2       0.13783    0.07371    0.49965   1.00
C6       0.25129    0.15540    0.47059   1.00
C6       0.11490    -0.01522   0.51803   1.00
H2       0.29157    0.20762    0.47374   1.00
H2       0.13046    -0.02519   0.53273   1.00
C6       0.25176    0.14277    0.44726   1.00
C6       0.03575    -0.06211   0.51620   1.00
H2       0.20369    0.15420    0.47432   1.00
H2       0.13898    -0.03180   0.50678   1.00
C6       0.32202    0.15438    0.44007   1.00
C6       -0.00222   -0.04929   0.53372   1.00
C6       0.19550    0.06992    0.44124   1.00
C6       0.00883    -0.05219   0.49562   1.00
C6       0.23775    0.19442    0.43579   1.00
C6       0.01821    -0.13763   0.51758   1.00
H2       0.36301    0.20501    0.44438   1.00
H2       0.01642    -0.05481   0.54847   1.00
H2       0.33329    0.11694    0.44660   1.00
H2       0.00446    0.00173    0.53293   1.00
H2       0.32334    0.15010    0.42361   1.00
H2       -0.05690   -0.08539   0.53311   1.00
H2       0.19307    0.06326    0.42481   1.00
H2       -0.04551   -0.08850   0.49390   1.00
H2       0.20551    0.03161    0.44781   1.00
H2       0.01569    -0.00112   0.49445   1.00
H2       0.14566    0.05991    0.44651   1.00
H2       0.03576    -0.05953   0.48302   1.00
H2       0.27655    0.24682    0.43935   1.00
H2       0.03553    -0.14757   0.53197   1.00
H2       0.23803    0.18790    0.41939   1.00
H2       -0.03669   -0.17245   0.51651   1.00
H2       0.18814    0.18784    0.43992   1.00
H2       0.04247    -0.15024   0.50534   1.00
C4       0.80280    0.15192    0.53182   1.00
C4       0.83183    0.12789    0.54665   1.00
C3       0.82782    0.22267    0.52843   1.00
C3       0.89217    0.17266    0.55760   1.00
C3       0.74651    0.10408    0.51981   1.00
C3       0.80003    0.05650    0.55088   1.00
C2       0.74632    0.20062    0.50115   1.00
C2       0.88870    0.07971    0.57736   1.00
C3       0.80076    0.24641    0.51350   1.00
C3       0.91964    0.14947    0.57256   1.00
C3       0.72066    0.13036    0.50469   1.00
C3       0.82941    0.03501    0.56631   1.00
H1       0.86621    0.25961    0.53681   1.00
H1       0.91881    0.22373    0.55497   1.00
C5       0.71728    0.03221    0.52311   1.00
C5       0.74081    0.00867    0.53975   1.00
H1       0.82126    0.29808    0.51175   1.00
H1       0.96312    0.18439    0.57997   1.00
H1       0.68097    0.09795    0.49575   1.00
H1       0.80800    -0.01528   0.56984   1.00
C6       0.66261    -0.01778   0.50888   1.00
C6       0.70353    -0.06577   0.54585   1.00
H2       0.67725    -0.00041   0.49331   1.00
H2       0.69909    -0.06933   0.56232   1.00
H2       0.66094    -0.06658   0.50862   1.00
H2       0.65033    -0.09123   0.54125   1.00
C6       0.58972    -0.03002   0.51398   1.00
C6       0.73733    -0.10643   0.53729   1.00
H2       0.59272    0.01878    0.51718   1.00
H2       0.79262    -0.07635   0.53925   1.00
C6       0.53223    -0.06836   0.49783   1.00
C6       0.71271    -0.17922   0.54617   1.00
H2       0.57338    -0.05853   0.52820   1.00
H2       0.72914    -0.11113   0.52090   1.00
C6       0.54624    -0.02587   0.47814   1.00
C6       0.73239    -0.17611   0.56884   1.00
C6       0.52349    -0.13891   0.49248   1.00
C6       0.63463    -0.22616   0.54384   1.00
C6       0.46377    -0.08011   0.50681   1.00
C6       0.74824    -0.21204   0.53429   1.00
H2       0.55376    0.02470    0.48145   1.00
H2       0.78711    -0.14244   0.57104   1.00
H2       0.59156    -0.01924   0.47035   1.00
H2       0.70581    -0.15738   0.57829   1.00
H2       0.50369    -0.05085   0.46755   1.00
H2       0.71925    -0.22650   0.57451   1.00
H2       0.48017    -0.16722   0.48234   1.00
H2       0.61869    -0.27806   0.54874   1.00
H2       0.56867    -0.13338   0.48483   1.00
H2       0.60706    -0.20787   0.55305   1.00
H2       0.51498    -0.16934   0.50614   1.00
H2       0.61922    -0.22810   0.52807   1.00
H2       0.46696    -0.03169   0.51066   1.00
H2       0.80362    -0.18118   0.53561   1.00
H2       0.42202    -0.10640   0.49601   1.00
H2       0.73297    -0.26291   0.54004   1.00
H2       0.45035    -0.11105   0.52055   1.00
H2       0.73519    -0.21691   0.51820   1.00
C4       0.65128    -0.15071   0.96827   1.00
C4       0.70420    -0.12645   0.95339   1.00
C3       0.61175    -0.22097   0.97357   1.00
C3       0.72606    -0.16943   0.94434   1.00
C3       0.63655    -0.10366   0.97836   1.00
C3       0.73715    -0.05664   0.94715   1.00
C2       0.54650    -0.19941   0.99907   1.00
C2       0.80889    -0.07827   0.92257   1.00
C3       0.56117    -0.24465   0.98856   1.00
C3       0.77656    -0.14629   0.92933   1.00
C3       0.58489    -0.12980   0.99362   1.00
C3       0.78807    -0.03519   0.93174   1.00
H1       0.61776    -0.25766   0.96659   1.00
H1       0.70660    -0.21901   0.94847   1.00
C5       0.67267    -0.03273   0.97307   1.00
C5       0.71932    -0.01023   0.95632   1.00
H1       0.53465    -0.29591   0.99174   1.00
H1       0.78984    -0.17991   0.92335   1.00
H1       0.57328    -0.09786   1.00123   1.00
H1       0.81232    0.01393    0.92681   1.00
C6       0.66170    0.01750    0.98534   1.00
C6       0.74932    0.06151    0.94808   1.00
H2       0.66110    0.00596    1.00141   1.00
H2       0.74780    0.05952    0.93156   1.00
H2       0.70544    0.06873    0.98448   1.00
H2       0.71692    0.08308    0.95134   1.00
C6       0.59609    0.01963    0.97898   1.00
C6       0.82301    0.11124    0.95615   1.00
H2       0.55372    -0.03235   0.97693   1.00
H2       0.85332    0.08590    0.95565   1.00
C6       0.57129    0.05785    0.99337   1.00
C6       0.86480    0.18196    0.94535   1.00
H2       0.60528    0.04311    0.96397   1.00
H2       0.81889    0.12031    0.97223   1.00
C6       0.54665    0.02109    1.01410   1.00
C6       0.88247    0.17402    0.92315   1.00
C6       0.62791    0.13269    0.99700   1.00
C6       0.82614    0.22229    0.94553   1.00
C6       0.50987    0.05880    0.98324   1.00
C6       0.93303    0.22469    0.95693   1.00
H2       0.50740    -0.03223   1.01204   1.00
H2       0.90884    0.14477    0.92248   1.00
H2       0.58839    0.02224    1.02263   1.00
H2       0.83685    0.14800    0.91380   1.00
H2       0.52510    0.04536    1.02348   1.00
H2       0.91554    0.22363    0.91621   1.00
H2       0.60865    0.16023    1.00585   1.00
H2       0.85766    0.27337    0.93928   1.00
H2       0.67052    0.13494    1.00536   1.00
H2       0.77988    0.19669    0.93640   1.00
H2       0.64717    0.15934    0.98262   1.00
H2       0.81183    0.22737    0.96096   1.00
H2       0.46805    0.00703    0.98053   1.00
H2       0.96273    0.19875    0.95707   1.00
H2       0.49039    0.08462    0.99281   1.00
H2       0.96430    0.27450    0.94986   1.00
H2       0.52442    0.08535    0.96870   1.00
H2       0.92395    0.23325    0.97263   1.00
C4       0.19739    0.35658    0.96606   1.00
C4       0.16576    0.30431    0.95108   1.00
C3       0.24797    0.42465    0.96108   1.00
C3       0.17716    0.31799    0.92991   1.00
C3       0.17841    0.34107    0.98690   1.00
C3       0.12078    0.23544    0.95722   1.00
C2       0.25897    0.46312    0.99622   1.00
C2       0.10447    0.19814    0.92081   1.00
C3       0.27764    0.47646    0.97565   1.00
C3       0.14779    0.26658    0.91522   1.00
C3       0.20957    0.39538    1.00126   1.00
C3       0.09219    0.18452    0.94179   1.00
H1       0.26565    0.43899    0.94671   1.00
H1       0.20670    0.36594    0.92437   1.00
C5       0.12988    0.27282    0.99296   1.00
C5       0.10509    0.21897    0.97826   1.00
H1       0.31363    0.52458    0.97107   1.00
H1       0.15825    0.27974    0.90020   1.00
H1       0.19705    0.38646    1.01620   1.00
H1       0.06034    0.13491    0.94557   1.00
C6       0.10491    0.25867    1.01468   1.00
C6       0.06331    0.14507    0.98470   1.00
H2       0.09433    0.29829    1.01972   1.00
H2       0.08129    0.11521    0.97654   1.00
H2       0.05486    0.21331    1.01585   1.00
H2       0.07351    0.13786    1.00035   1.00
C6       0.15519    0.25130    1.02941   1.00
C6       -0.01537   0.11499    0.98195   1.00
H2       0.20744    0.29155    1.02627   1.00
H2       -0.02529   0.13056    0.96724   1.00
C6       0.14252    0.25179    1.05274   1.00
C6       -0.06231   0.03584    0.98378   1.00
H2       0.15396    0.20368    1.02568   1.00
H2       -0.03195   0.13910    0.99320   1.00
C6       0.15417    0.32207    1.05993   1.00
C6       -0.04950   -0.00216   0.96627   1.00
C6       0.06964    0.19557    1.05874   1.00
C6       -0.05247   0.00892    1.00437   1.00
C6       0.19411    0.23773    1.06422   1.00
C6       -0.13781   0.01837    0.98238   1.00
H2       0.20483    0.36303    1.05562   1.00
H2       -0.05496   0.01649    0.95151   1.00
H2       0.11678    0.33338    1.05338   1.00
H2       0.00151    0.00448    0.96707   1.00
H2       0.14986    0.32340    1.07638   1.00
H2       -0.08563   -0.05683   0.96687   1.00
H2       0.06295    0.19315    1.07518   1.00
H2       -0.08881   -0.04542   1.00609   1.00
H2       0.03137    0.20562    1.05217   1.00
H2       -0.00142   0.01573    1.00555   1.00
H2       0.05961    0.14571    1.05348   1.00
H2       -0.05980   0.03586    1.01695   1.00
H2       0.24653    0.27650    1.06067   1.00
H2       -0.14770   0.03570    0.96799   1.00
H2       0.18756    0.23801    1.08062   1.00
H2       -0.17266   -0.03653   0.98345   1.00
H2       0.18750    0.18810    1.06010   1.00
H2       -0.15042   0.04265    0.99461   1.00
C4       0.15192    0.80280    0.96818   1.00
C4       0.12789    0.83183    0.95335   1.00
C3       0.22267    0.82782    0.97157   1.00
C3       0.17266    0.89217    0.94240   1.00
C3       0.10409    0.74652    0.98019   1.00
C3       0.05650    0.80003    0.94912   1.00
C2       0.20062    0.74632    0.99885   1.00
C2       0.07971    0.88870    0.92264   1.00
C3       0.24641    0.80076    0.98650   1.00
C3       0.14947    0.91964    0.92744   1.00
C3       0.13036    0.72066    0.99531   1.00
C3       0.03501    0.82942    0.93369   1.00
H1       0.25961    0.86620    0.96319   1.00
H1       0.22373    0.91881    0.94503   1.00
C5       0.03221    0.71729    0.97689   1.00
C5       0.00867    0.74082    0.96025   1.00
H1       0.29808    0.82125    0.98824   1.00
H1       0.18439    0.96312    0.92003   1.00
H1       0.09796    0.68098    1.00425   1.00
H1       -0.01528   0.80801    0.93016   1.00
C6       -0.01777   0.66263    0.99113   1.00
C6       -0.06577   0.70355    0.95415   1.00
H2       -0.00041   0.67726    1.00669   1.00
H2       -0.06934   0.69910    0.93768   1.00
H2       -0.06658   0.66096    0.99138   1.00
H2       -0.09124   0.65034    0.95875   1.00
C6       -0.03003   0.58973    0.98602   1.00
C6       -0.10643   0.73735    0.96272   1.00
H2       0.01877    0.59273    0.98283   1.00
H2       -0.07634   0.79263    0.96076   1.00
C6       -0.06837   0.53224    1.00217   1.00
C6       -0.17922   0.71273    0.95384   1.00
H2       -0.05854   0.57339    0.97181   1.00
H2       -0.11112   0.72916    0.97911   1.00
C6       -0.02588   0.54626    1.02186   1.00
C6       -0.17611   0.73241    0.93116   1.00
C6       -0.13892   0.52351    1.00753   1.00
C6       -0.22616   0.63465    0.95616   1.00
C6       -0.08012   0.46378    0.99320   1.00
C6       -0.21203   0.74826    0.96572   1.00
H2       0.02470    0.55377    1.01855   1.00
H2       -0.14244   0.78713    0.92896   1.00
H2       -0.01923   0.59158    1.02966   1.00
H2       -0.15739   0.70583    0.92171   1.00
H2       -0.05085   0.50371    1.03245   1.00
H2       -0.22650   0.71927    0.92550   1.00
H2       -0.16722   0.48019    1.01767   1.00
H2       -0.27806   0.61872    0.95126   1.00
H2       -0.13338   0.56869    1.01517   1.00
H2       -0.20788   0.60707    0.94696   1.00
H2       -0.16934   0.51501    0.99387   1.00
H2       -0.22810   0.61924    0.97194   1.00
H2       -0.03171   0.46697    0.98935   1.00
H2       -0.18117   0.80365    0.96439   1.00
H2       -0.10641   0.42203    1.00400   1.00
H2       -0.26290   0.73301    0.95997   1.00
H2       -0.11106   0.45036    0.97946   1.00
H2       -0.21690   0.73522    0.98180   1.00
C4       0.15550    0.36015    0.46486   1.00
C4       0.13248    0.31019    0.44909   1.00
C3       0.21902    0.38359    0.47496   1.00
C3       0.17430    0.28554    0.44088   1.00
C3       0.11404    0.38822    0.47097   1.00
C3       0.06524    0.28337    0.44103   1.00
C2       0.20364    0.46361    0.49605   1.00
C2       0.08481    0.20673    0.41791   1.00
C3       0.24262    0.43398    0.49001   1.00
C3       0.15120    0.23515    0.42584   1.00
C3       0.14010    0.43970    0.48628   1.00
C3       0.04353    0.23184    0.42580   1.00
H1       0.25021    0.36445    0.47190   1.00
H1       0.22335    0.30376    0.44538   1.00
C5       0.04834    0.36457    0.46196   1.00
C5       0.02180    0.30827    0.44809   1.00
H1       0.28900    0.44888    0.49665   1.00
H1       0.18376    0.21935    0.42061   1.00
H1       0.11232    0.46121    0.49094   1.00
H1       -0.00408   0.21119    0.41979   1.00
C6       0.00826    0.39977    0.46700   1.00
C6       -0.05158   0.27438    0.44101   1.00
H2       0.04260    0.45477    0.46684   1.00
H2       -0.07334   0.21923    0.44139   1.00
H2       -0.02729   0.39344    0.45498   1.00
H2       -0.08375   0.28149    0.45181   1.00
C6       -0.03167   0.37520    0.48754   1.00
C6       -0.05990   0.29950    0.41960   1.00
H2       0.00121    0.37195    0.49910   1.00
H2       -0.02085   0.30192    0.40933   1.00
C6       -0.06228   0.41816    0.49652   1.00
C6       -0.13062   0.25771    0.40881   1.00
H2       -0.07321   0.32290    0.48540   1.00
H2       -0.04863   0.35215    0.42120   1.00
C6       -0.00559   0.49032    0.50307   1.00
C6       -0.14572   0.18506    0.40300   1.00
C6       -0.11055   0.42491    0.48125   1.00
C6       -0.18946   0.25219    0.42216   1.00
C6       -0.10441   0.38129    0.51571   1.00
C6       -0.12911   0.29504    0.38889   1.00
H2       0.03003    0.48734    0.51361   1.00
H2       -0.10453   0.18717    0.39384   1.00
H2       0.02347    0.52068    0.49009   1.00
H2       -0.15165   0.15444    0.41640   1.00
H2       -0.02725   0.51812    0.51058   1.00
H2       -0.19278   0.15806    0.39426   1.00
H2       -0.13536   0.45068    0.48815   1.00
H2       -0.23778   0.22725    0.41395   1.00
H2       -0.08250   0.45461    0.46803   1.00
H2       -0.19580   0.22224    0.43577   1.00
H2       -0.15013   0.37481    0.47607   1.00
H2       -0.17940   0.30262    0.42681   1.00
H2       -0.07246   0.37583    0.52711   1.00
H2       -0.08878   0.29967    0.37879   1.00
H2       -0.12652   0.40964    0.52263   1.00
H2       -0.17736   0.26750    0.38071   1.00
H2       -0.14618   0.33044    0.51200   1.00
H2       -0.12000   0.34627    0.39202   1.00
C4       0.65038    0.80348    0.46805   1.00
C4       0.70160    0.83497    0.45277   1.00
C3       0.65419    0.76186    0.48362   1.00
C3       0.76350    0.83299    0.45321   1.00
C3       0.59275    0.81334    0.46798   1.00
C3       0.69144    0.87010    0.43632   1.00
C2       0.54855    0.74249    0.49955   1.00
C2       0.80373    0.89576    0.42135   1.00
C3       0.60508    0.73252    0.49896   1.00
C3       0.81293    0.86212    0.43795   1.00
C3       0.54405    0.78288    0.48394   1.00
C3       0.74286    0.89876    0.42103   1.00
H1       0.69244    0.75074    0.48428   1.00
H1       0.77530    0.81090    0.46474   1.00
C5       0.58465    0.85236    0.45222   1.00
C5       0.63145    0.87627    0.43550   1.00
H1       0.61090    0.70325    0.50980   1.00
H1       0.85635    0.85871    0.43910   1.00
H1       0.50262    0.78912    0.48449   1.00
H1       0.73725    0.92373    0.40902   1.00
C6       0.52740    0.86843    0.45353   1.00
C6       0.61794    0.90715    0.41695   1.00
H2       0.52430    0.88356    0.46900   1.00
H2       0.62889    0.88682    0.40339   1.00
H2       0.53919    0.91429    0.44510   1.00
H2       0.56391    0.88932    0.41509   1.00
C6       0.45713    0.80847    0.44606   1.00
C6       0.65812    0.98709    0.41709   1.00
H2       0.44939    0.76027    0.45221   1.00
H2       0.71072    1.00551    0.42186   1.00
C6       0.39184    0.81307    0.45086   1.00
C6       0.66021    1.02443    0.39689   1.00
H2       0.46035    0.80417    0.42964   1.00
H2       0.63601    1.00392    0.42891   1.00
C6       0.37727    0.80836    0.47398   1.00
C6       0.70071    1.01193    0.38009   1.00
C6       0.39765    0.87966    0.44246   1.00
C6       0.58757    1.00218    0.38901   1.00
C6       0.32965    0.75197    0.44055   1.00
C6       0.69705    1.10234    0.40103   1.00
H2       0.37398    0.76239    0.48044   1.00
H2       0.75191    1.02610    0.38530   1.00
H2       0.41711    0.85213    0.48205   1.00
H2       0.67530    0.95858    0.37553   1.00
H2       0.32919    0.80684    0.47707   1.00
H2       0.70592    1.04189    0.36656   1.00
H2       0.35009    0.88012    0.44460   1.00
H2       0.58952    1.03199    0.37576   1.00
H2       0.43777    0.92419    0.45022   1.00
H2       0.56100    0.94866    0.38455   1.00
H2       0.40933    0.88493    0.42628   1.00
H2       0.55749    1.00912    0.40070   1.00
H2       0.32281    0.70353    0.44612   1.00
H2       0.74898    1.12086    0.40644   1.00
H2       0.28261    0.75269    0.44358   1.00
H2       0.70020    1.13075    0.38730   1.00
H2       0.33626    0.75322    0.42412   1.00
H2       0.67007    1.11461    0.41249   1.00
C4       0.19759    -0.15919   0.46600   1.00
C4       0.16875    -0.13862   0.45013   1.00
C3       0.16958    -0.17466   0.48594   1.00
C3       0.10601    -0.13899   0.45247   1.00
C3       0.25676    -0.16468   0.46206   1.00
C3       0.20323    -0.11679   0.43109   1.00
C2       0.25386    -0.20402   0.49783   1.00
C2       0.11207    -0.09387   0.41840   1.00
C3       0.19656    -0.19672   0.50136   1.00
C3       0.07860    -0.11701   0.43715   1.00
C3       0.28244    -0.18769   0.47816   1.00
C3       0.17380    -0.09443   0.41591   1.00
H1       0.12894    -0.16982   0.49005   1.00
H1       0.07752    -0.15590   0.46532   1.00
C5       0.28893    -0.14705   0.44253   1.00
C5       0.26509    -0.11801   0.42753   1.00
H1       0.17384    -0.20734   0.51540   1.00
H1       0.03330    -0.11826   0.43982   1.00
H1       0.32415    -0.19268   0.47590   1.00
H1       0.19704    -0.07810   0.40222   1.00
C6       0.34699    -0.16001   0.43793   1.00
C6       0.30477    -0.08799   0.40815   1.00
H2       0.33413    -0.21015   0.44369   1.00
H2       0.30680    -0.03974   0.40505   1.00
H2       0.35163    -0.16611   0.42176   1.00
H2       0.35848    -0.07171   0.41000   1.00
C6       0.41746    -0.10287   0.44626   1.00
C6       0.27586    -0.13787   0.38962   1.00
H2       0.41109    -0.08937   0.46170   1.00
H2       0.22027    -0.16219   0.38938   1.00
C6       0.47783    -0.11793   0.44643   1.00
C6       0.30279    -0.10758   0.36802   1.00
H2       0.43286    -0.05692   0.43726   1.00
H2       0.28655    -0.17927   0.39221   1.00
C6       0.46466    -0.17591   0.46148   1.00
C6       0.28014    -0.05584   0.36176   1.00
C6       0.49140    -0.13681   0.42502   1.00
C6       0.38151    -0.07259   0.36677   1.00
C6       0.54340    -0.05263   0.45348   1.00
C6       0.27223    -0.16676   0.35238   1.00
H2       0.45379    -0.16463   0.47668   1.00
H2       0.22483    -0.07868   0.36280   1.00
H2       0.42160    -0.22447   0.45673   1.00
H2       0.30327    -0.01076   0.37140   1.00
H2       0.50893    -0.18280   0.46254   1.00
H2       0.29507    -0.03862   0.34617   1.00
H2       0.53656    -0.14242   0.42502   1.00
H2       0.39935    -0.05598   0.35131   1.00
H2       0.44853    -0.18501   0.41990   1.00
H2       0.40567    -0.02765   0.37648   1.00
H2       0.49943    -0.09745   0.41403   1.00
H2       0.39891    -0.10750   0.37151   1.00
H2       0.53677    -0.03746   0.46865   1.00
H2       0.21658    -0.19281   0.35249   1.00
H2       0.58701    -0.06076   0.45397   1.00
H2       0.28923    -0.14806   0.33700   1.00
H2       0.55619    -0.01011   0.44320   1.00
H2       0.28757    -0.20437   0.35575   1.00
C4       0.34869    0.15059    0.03173   1.00
C4       0.29688    0.13045    0.04684   1.00
C3       0.35649    0.10240    0.01983   1.00
C3       0.24495    0.06123    0.04963   1.00
C3       0.39500    0.22143    0.02820   1.00
C3       0.29611    0.18077    0.05976   1.00
C2       0.45133    0.19130    0.00048   1.00
C2       0.19404    0.08920    0.07804   1.00
C3       0.40597    0.12200    0.00461   1.00
C3       0.19525    0.04106    0.06481   1.00
C3       0.44443    0.23927    0.01248   1.00
C3       0.24485    0.15807    0.07511   1.00
H1       0.32694    0.05123    0.02191   1.00
H1       0.24088    0.02294    0.04061   1.00
C5       0.39150    0.27228    0.04027   1.00
C5       0.34533    0.25159    0.05712   1.00
H1       0.40878    0.08475    -0.00350   1.00
H1       0.15936    -0.00970   0.06609   1.00
H1       0.47795    0.28911    0.00942   1.00
H1       0.24292    0.19228    0.08468   1.00
C6       0.43593    0.34694    0.03495   1.00
C6       0.34843    0.30339    0.07224   1.00
H2       0.43506    0.35301    0.01858   1.00
H2       0.34404    0.28329    0.08753   1.00
H2       0.41401    0.37717    0.04035   1.00
H2       0.39873    0.34865    0.07270   1.00
C6       0.51062    0.37871    0.04320   1.00
C6       0.29396    0.32539    0.06816   1.00
H2       0.52965    0.34359    0.04040   1.00
H2       0.24479    0.28034    0.06475   1.00
C6       0.56488    0.45048    0.03493   1.00
C6       0.28215    0.36658    0.08519   1.00
H2       0.50860    0.38202    0.05970   1.00
H2       0.30866    0.35583    0.05428   1.00
C6       0.57898    0.44788    0.01202   1.00
C6       0.25063    0.32282    0.10451   1.00
C6       0.54272    0.50425    0.03846   1.00
C6       0.34919    0.43221    0.09092   1.00
C6       0.63295    0.47433    0.04645   1.00
C6       0.23110    0.38802    0.07719   1.00
H2       0.59368    0.40956    0.00897   1.00
H2       0.20375    0.27553    0.10093   1.00
H2       0.53423    0.43549    0.00286   1.00
H2       0.28569    0.30943    0.11167   1.00
H2       0.62018    0.49697    0.00672   1.00
H2       0.23822    0.35034    0.11575   1.00
H2       0.58295    0.55501    0.03398   1.00
H2       0.33959    0.46297    0.10173   1.00
H2       0.49753    0.49237    0.02957   1.00
H2       0.38529    0.41989    0.09793   1.00
H2       0.53109    0.50609    0.05443   1.00
H2       0.37318    0.46328    0.07750   1.00
H2       0.65127    0.43839    0.04427   1.00
H2       0.18250    0.34338    0.07312   1.00
H2       0.67269    0.52415    0.04109   1.00
H2       0.22084    0.41661    0.08862   1.00
H2       0.62663    0.47851    0.06270   1.00
H2       0.25110    0.42024    0.06376   1.00
C4       0.80283    0.65087    0.03183   1.00
C4       0.83444    0.70236    0.04703   1.00
C3       0.75424    0.64969    0.01786   1.00
C3       0.82516    0.76007    0.04797   1.00
C3       0.81978    0.59808    0.03033   1.00
C3       0.87720    0.69681    0.06197   1.00
C2       0.74139    0.54869    0.00044   1.00
C2       0.89562    0.80480    0.07836   1.00
C3       0.72464    0.60042    0.00257   1.00
C3       0.85448    0.80961    0.06320   1.00
C3       0.78878    0.54907    0.01448   1.00
C3       0.90581    0.74816    0.07728   1.00
H1       0.73802    0.68420    0.01839   1.00
H1       0.79730    0.76864    0.03751   1.00
C5       0.86619    0.59493    0.04450   1.00
C5       0.89075    0.64138    0.06130   1.00
H1       0.69015    0.60254    -0.00708   1.00
H1       0.84561    0.84987    0.06308   1.00
H1       0.79990    0.51103    0.01284   1.00
H1       0.93611    0.74573    0.08824   1.00
C6       0.88920    0.54324    0.04143   1.00
C6       0.93006    0.63218    0.07840   1.00
H2       0.90093    0.54227    0.02545   1.00
H2       0.91142    0.63990    0.09283   1.00
H2       0.93838    0.55958    0.04848   1.00
H2       0.91808    0.57949    0.07972   1.00
C6       0.83652    0.47034    0.04944   1.00
C6       1.00924    0.67918    0.07636   1.00
H2       0.78509    0.45750    0.04482   1.00
H2       1.02116    0.73063    0.07208   1.00
C6       0.84741    0.40981    0.04312   1.00
C6       1.05401    0.68533    0.09521   1.00
H2       0.83641    0.47269    0.06599   1.00
H2       1.02599    0.66059    0.06355   1.00
C6       0.83744    0.39585    0.01998   1.00
C6       1.04115    0.72161    0.11321   1.00
C6       0.91901    0.42300    0.04931   1.00
C6       1.04127    0.61464    0.10227   1.00
C6       0.79345    0.34432    0.05418   1.00
C6       1.13029    0.72901    0.08918   1.00
H2       0.78774    0.38743    0.01507   1.00
H2       1.04865    0.77125    0.10862   1.00
H2       0.87643    0.43836    0.01128   1.00
H2       0.98945    0.69151    0.11905   1.00
H2       0.84044    0.35070    0.01594   1.00
H2       1.07589    0.72988    0.12575   1.00
H2       0.92430    0.37855    0.04615   1.00
H2       1.07614    0.61985    0.11447   1.00
H2       0.95886    0.46586    0.04090   1.00
H2       0.98949    0.58344    0.10800   1.00
H2       0.92790    0.43439    0.06547   1.00
H2       1.04859    0.58742    0.08976   1.00
H2       0.74183    0.33228    0.05015   1.00
H2       1.14221    0.77985    0.08426   1.00
H2       0.79870    0.30041    0.05013   1.00
H2       1.16369    0.73516    0.10192   1.00
H2       0.79877    0.35050    0.07061   1.00
H2       1.14292    0.70531    0.07679   1.00
C4       -0.15919   0.19761    0.03400   1.00
C4       -0.13862   0.16878    0.04987   1.00
C3       -0.17484   0.16948    0.01408   1.00
C3       -0.13916   0.10594    0.04755   1.00
C3       -0.16450   0.25689    0.03793   1.00
C3       -0.11660   0.20335    0.06890   1.00
C2       -0.20403   0.25387    0.00217   1.00
C2       -0.09385   0.11210    0.08160   1.00
C3       -0.19691   0.19645    -0.00134   1.00
C3       -0.11717   0.07854    0.06287   1.00
C3       -0.18752   0.28256    0.02183   1.00
C3       -0.09424   0.17392    0.08407   1.00
H1       -0.17013   0.12875    0.00998   1.00
H1       -0.15620   0.07739    0.03472   1.00
C5       -0.14668   0.28917    0.05744   1.00
C5       -0.11763   0.26532    0.07243   1.00
H1       -0.20766   0.17365    -0.01536   1.00
H1       -0.11856   0.03317    0.06023   1.00
H1       -0.19239   0.32435    0.02408   1.00
H1       -0.07778   0.19724    0.09775   1.00
C6       -0.15944   0.34736    0.06203   1.00
C6       -0.08743   0.30509    0.09180   1.00
H2       -0.20959   0.33458    0.05629   1.00
H2       -0.03921   0.30702    0.09487   1.00
H2       -0.16542   0.35212    0.07820   1.00
H2       -0.07104   0.35881    0.08992   1.00
C6       -0.10226   0.41773    0.05365   1.00
C6       -0.13720   0.27638    0.11036   1.00
H2       -0.08889   0.41123    0.03821   1.00
H2       -0.16162   0.22078    0.11062   1.00
C6       -0.11714   0.47822    0.05347   1.00
C6       -0.10673   0.30340    0.13193   1.00
H2       -0.05626   0.43309    0.06263   1.00
H2       -0.17853   0.28717    0.10777   1.00
C6       -0.17519   0.46508    0.03844   1.00
C6       -0.05508   0.28063    0.13818   1.00
C6       -0.13583   0.49198    0.07488   1.00
C6       -0.07158   0.38214    0.13314   1.00
C6       -0.05181   0.54366    0.04637   1.00
C6       -0.16582   0.27304    0.14761   1.00
H2       -0.16405   0.45408    0.02324   1.00
H2       -0.07803   0.22530    0.13716   1.00
H2       -0.22376   0.42212    0.04323   1.00
H2       -0.01006   0.30362    0.12851   1.00
H2       -0.18197   0.50942    0.03738   1.00
H2       -0.03773   0.29563    0.15375   1.00
H2       -0.14132   0.53720    0.07487   1.00
H2       -0.05485   0.40006    0.14859   1.00
H2       -0.18405   0.44921    0.08003   1.00
H2       -0.02670   0.40615    0.12340   1.00
H2       -0.09643   0.49998    0.08585   1.00
H2       -0.10644   0.39962    0.12840   1.00
H2       -0.03678   0.53689    0.03120   1.00
H2       -0.19196   0.21739    0.14752   1.00
H2       -0.05982   0.58734    0.04586   1.00
H2       -0.14699   0.29011    0.16297   1.00
H2       -0.00925   0.55642    0.05663   1.00
H2       -0.20336   0.28847    0.14425   1.00
C4       0.51445    0.97341    0.86849   1.00
C4       0.53430    1.02314    0.88424   1.00
C3       0.56152    0.95784    0.85897   1.00
C3       0.60068    1.05550    0.89302   1.00
C3       0.44511    0.93746    0.86179   1.00
C3       0.48656    1.04178    0.89170   1.00
C2       0.47370    0.87048    0.83734   1.00
C2       0.57557    1.12615    0.91539   1.00
C3       0.54183    0.90774    0.84394   1.00
C3       0.62092    1.10568    0.90805   1.00
C3       0.42706    0.88655    0.84652   1.00
C3       0.50931    1.09339    0.90694   1.00
H1       0.61202    0.98280    0.86246   1.00
H1       0.63662    1.04332    0.88897   1.00
C5       0.39600    0.95293    0.87021   1.00
C5       0.41811    1.00892    0.88405   1.00
H1       0.57818    0.89872    0.83773   1.00
H1       0.66961    1.12727    0.91370   1.00
H1       0.37817    0.85958    0.84147   1.00
H1       0.47699    1.10835    0.91252   1.00
C6       0.32149    0.90958    0.86456   1.00
C6       0.37042    1.03420    0.89050   1.00
H2       0.30754    0.85603    0.86483   1.00
H2       0.39792    1.08975    0.89014   1.00
H2       0.28830    0.91102    0.87622   1.00
H2       0.33067    1.02197    0.87931   1.00
C6       0.30349    0.93003    0.84371   1.00
C6       0.33646    1.00607    0.91168   1.00
H2       0.34258    0.93840    0.83253   1.00
H2       0.37484    1.00916    0.92235   1.00
C6       0.23232    0.87983    0.83420   1.00
C6       0.29849    1.04012    0.92190   1.00
H2       0.30707    0.97963    0.84566   1.00
H2       0.30027    0.95164    0.90995   1.00
C6       0.22704    0.81132    0.82792   1.00
C6       0.34856    1.11526    0.92789   1.00
C6       0.17325    0.86544    0.84891   1.00
C6       0.24217    1.03745    0.90794   1.00
C6       0.22312    0.91305    0.81474   1.00
C6       0.26392    1.00043    0.94165   1.00
H2       0.26871    0.81981    0.81778   1.00
H2       0.38961    1.11901    0.93749   1.00
H2       0.22887    0.78316    0.84106   1.00
H2       0.37163    1.14710    0.91458   1.00
H2       0.17917    0.77858    0.82004   1.00
H2       0.32240    1.13705    0.93625   1.00
H2       0.12382    0.83438    0.84162   1.00
H2       0.21284    1.05686    0.91575   1.00
H2       0.17459    0.83783    0.86228   1.00
H2       0.26422    1.06852    0.89442   1.00
H2       0.17661    0.91296    0.85390   1.00
H2       0.20702    0.98523    0.90316   1.00
H2       0.26324    0.92363    0.80372   1.00
H2       0.30165    1.00137    0.95216   1.00
H2       0.17422    0.87964    0.80745   1.00
H2       0.23705    1.02263    0.94943   1.00
H2       0.22498    0.96105    0.81824   1.00
H2       0.22689    0.94723    0.93837   1.00
C4       0.01628    0.52986    0.86527   1.00
C4       -0.03687   0.50047    0.88007   1.00
C3       0.06767    0.51132    0.86365   1.00
C3       -0.04655   0.44553    0.89283   1.00
C3       0.01900    0.57986    0.85147   1.00
C3       -0.08262   0.52629    0.88239   1.00
C2       0.12184    0.58679    0.83472   1.00
C2       -0.14224   0.44320    0.91068   1.00
C3       0.11868    0.53858    0.84879   1.00
C3       -0.09736   0.41791    0.90774   1.00
C3       0.07156    0.60611    0.83648   1.00
C3       -0.13346   0.49700    0.89783   1.00
H1       0.07036    0.47781    0.87334   1.00
H1       -0.01747   0.42306    0.89162   1.00
C5       -0.02963   0.60267    0.85290   1.00
C5       -0.07721   0.57962    0.86941   1.00
H1       0.15410    0.52290    0.84838   1.00
H1       -0.10152   0.37852    0.91651   1.00
H1       0.07489    0.64139    0.82631   1.00
H1       -0.16664   0.51431    0.90003   1.00
C6       -0.03060   0.65007    0.83687   1.00
C6       -0.12116   0.61136    0.87344   1.00
H2       -0.02525   0.63248    0.82197   1.00
H2       -0.12153   0.62018    0.88968   1.00
H2       -0.08049   0.64574    0.83567   1.00
H2       -0.09808   0.66294    0.86748   1.00
C6       0.02437    0.72671    0.84048   1.00
C6       -0.19523   0.56838    0.86474   1.00
H2       0.07287    0.73046    0.84462   1.00
H2       -0.21526   0.51445    0.86820   1.00
C6       0.03840    0.77799    0.82272   1.00
C6       -0.24938   0.58778    0.87179   1.00
H2       0.00892    0.74434    0.85380   1.00
H2       -0.19177   0.57186    0.84821   1.00
C6       0.07102    0.76301    0.80417   1.00
C6       -0.26554   0.57376    0.89473   1.00
C6       -0.02759   0.77698    0.81592   1.00
C6       -0.22581   0.66352    0.86726   1.00
C6       0.08957    0.85109    0.83025   1.00
C6       -0.31664   0.54302    0.85996   1.00
H2       0.11717    0.76226    0.80854   1.00
H2       -0.28128   0.52093    0.89849   1.00
H2       0.03603    0.71396    0.79732   1.00
H2       -0.22140   0.60667    0.90403   1.00
H2       0.08494    0.80177    0.79244   1.00
H2       -0.30667   0.58294    0.89919   1.00
H2       -0.01648   0.81627    0.80456   1.00
H2       -0.26587   0.67525    0.87089   1.00
H2       -0.06361   0.72799    0.80919   1.00
H2       -0.18119   0.69736    0.87629   1.00
H2       -0.05235   0.78598    0.82878   1.00
H2       -0.21273   0.67511    0.85127   1.00
H2       0.13746    0.85479    0.83505   1.00
H2       -0.33591   0.48891    0.86280   1.00
H2       0.10136    0.88879    0.81831   1.00
H2       -0.35629   0.55441    0.86446   1.00
H2       0.06885    0.86522    0.84311   1.00
H2       -0.30885   0.55168    0.84365   1.00
C4       0.46920    0.48482    0.86512   1.00
C4       0.49809    0.46070    0.87996   1.00
C3       0.49634    0.55556    0.86106   1.00
C3       0.56015    0.50499    0.89024   1.00
C3       0.41086    0.43711    0.85377   1.00
C3       0.46439    0.38972    0.88489   1.00
C2       0.41287    0.53353    0.83440   1.00
C2       0.55483    0.41252    0.91071   1.00
C3       0.46934    0.57928    0.84611   1.00
C3       0.58757    0.48182    0.90522   1.00
C3       0.38514    0.46335    0.83860   1.00
C3       0.49381    0.36824    0.90031   1.00
H1       0.53633    0.59252    0.86896   1.00
H1       0.58810    0.55565    0.88709   1.00
C5       0.37955    0.36541    0.85776   1.00
C5       0.40329    0.34224    0.87445   1.00
H1       0.49142    0.63092    0.84387   1.00
H1       0.63235    0.51639    0.91213   1.00
H1       0.34401    0.43100    0.83013   1.00
H1       0.47109    0.31826    0.90434   1.00
C6       0.32247    0.31518    0.84421   1.00
C6       0.36429    0.26858    0.88130   1.00
H2       0.33588    0.33050    0.82844   1.00
H2       0.36154    0.26700    0.89781   1.00
H2       0.31871    0.26541    0.84433   1.00
H2       0.31071    0.24440    0.87718   1.00
C6       0.25124    0.30644    0.84979   1.00
C6       0.39467    0.22463    0.87287   1.00
H2       0.25662    0.35648    0.85260   1.00
H2       0.45020    0.25314    0.87431   1.00
C6       0.19171    0.26800    0.83425   1.00
C6       0.36841    0.15243    0.88242   1.00
H2       0.23554    0.27967    0.86430   1.00
H2       0.38474    0.21835    0.85657   1.00
C6       0.20516    0.30853    0.81418   1.00
C6       0.39017    0.15731    0.90495   1.00
C6       0.17957    0.19578    0.82948   1.00
C6       0.28984    0.10768    0.88087   1.00
C6       0.12525    0.26003    0.84367   1.00
C6       0.40047    0.11604    0.87061   1.00
H2       0.21504    0.36019    0.81706   1.00
H2       0.44533    0.18952    0.90660   1.00
H2       0.24891    0.31244    0.80610   1.00
H2       0.36599    0.17865    0.91440   1.00
H2       0.16138    0.28371    0.80401   1.00
H2       0.37575    0.10709    0.91106   1.00
H2       0.13494    0.16764    0.81978   1.00
H2       0.27254    0.05596    0.88624   1.00
H2       0.22315    0.19858    0.82155   1.00
H2       0.26465    0.12859    0.89008   1.00
H2       0.17138    0.16664    0.84340   1.00
H2       0.27303    0.10458    0.86520   1.00
H2       0.13086    0.30973    0.84714   1.00
H2       0.45606    0.14526    0.87140   1.00
H2       0.08217    0.23380    0.83330   1.00
H2       0.38397    0.06544    0.87682   1.00
H2       0.11224    0.23059    0.85770   1.00
H2       0.38581    0.10982    0.85464   1.00
C4       0.30649    0.17810    0.29817   1.00
C4       0.35679    0.19764    0.28261   1.00
C3       0.27329    0.21605    0.30248   1.00
C3       0.37218    0.25211    0.26890   1.00
C3       0.28814    0.11854    0.31005   1.00
C3       0.39352    0.16183    0.28043   1.00
C2       0.20238    0.13680    0.32897   1.00
C2       0.46082    0.23936    0.25176   1.00
C3       0.22257    0.19595    0.31733   1.00
C3       0.42281    0.27265    0.25400   1.00
C3       0.23598    0.09960    0.32496   1.00
C3       0.44495    0.18459    0.26513   1.00
H1       0.28519    0.26009    0.29512   1.00
H1       0.34670    0.27847    0.26909   1.00
C5       0.32183    0.07988    0.30700   1.00
C5       0.37830    0.10473    0.29323   1.00
H1       0.20038    0.22537    0.31965   1.00
H1       0.43165    0.31250    0.24463   1.00
H1       0.22120    0.05733    0.33361   1.00
H1       0.47248    0.16072    0.26321   1.00
C6       0.29692    0.01309    0.31815   1.00
C6       0.42240    0.07198    0.29221   1.00
H2       0.24139    -0.01574   0.31767   1.00
H2       0.47580    0.11184    0.29156   1.00
H2       0.30992    -0.02073   0.31009   1.00
H2       0.42085    0.04638    0.30631   1.00
C6       0.32441    0.02255    0.34043   1.00
C6       0.40306    0.02018    0.27424   1.00
H2       0.32053    0.06379    0.34775   1.00
H2       0.39478    0.04206    0.26049   1.00
C6       0.29052    -0.04099   0.35478   1.00
C6       0.45410    -0.00517   0.26892   1.00
H2       0.37899    0.04046    0.33963   1.00
H2       0.35360    -0.02428   0.27773   1.00
C6       0.21503    -0.06316   0.35936   1.00
C6       0.52255    0.05348    0.26063   1.00
C6       0.29430    -0.10218   0.34576   1.00
C6       0.46843    -0.03797   0.28751   1.00
C6       0.32958    -0.02161   0.37527   1.00
C6       0.42191    -0.06020   0.25206   1.00
H2       0.21051    -0.02074   0.36545   1.00
H2       0.51408    0.07845    0.24769   1.00
H2       0.18364    -0.08150   0.34577   1.00
H2       0.55003    0.09211    0.27216   1.00
H2       0.19329    -0.10440   0.37047   1.00
H2       0.55592    0.03443    0.25566   1.00
H2       0.27498    -0.14450   0.35650   1.00
H2       0.50012    -0.05982   0.28330   1.00
H2       0.26370    -0.12088   0.33201   1.00
H2       0.49536    -0.00021   0.29932   1.00
H2       0.34679    -0.08753   0.34200   1.00
H2       0.42093    -0.07852   0.29390   1.00
H2       0.32786    0.02102    0.38241   1.00
H2       0.41140    -0.03941   0.23847   1.00
H2       0.30746    -0.06433   0.38589   1.00
H2       0.45592    -0.07921   0.24772   1.00
H2       0.38302    -0.00678   0.37310   1.00
H2       0.37399    -0.10369   0.25715   1.00
C4       0.87643    0.69203    0.29846   1.00
C4       0.84757    0.64262    0.28259   1.00
C3       0.92234    0.69117    0.31308   1.00
C3       0.86800    0.59340    0.27895   1.00
C3       0.85922    0.74463    0.30001   1.00
C3       0.79631    0.64172    0.26971   1.00
C2       0.93744    0.79388    0.32995   1.00
C2       0.78686    0.54055    0.25115   1.00
C3       0.95224    0.74067    0.32829   1.00
C3       0.83842    0.54366    0.26378   1.00
C3       0.89108    0.79429    0.31566   1.00
C3       0.76720    0.58999    0.25451   1.00
H1       0.93524    0.65415    0.31334   1.00
H1       0.90564    0.59226    0.28704   1.00
C5       0.81111    0.74648    0.28625   1.00
C5       0.77569    0.69177    0.27209   1.00
H1       0.98516    0.73736    0.33832   1.00
H1       0.85522    0.50943    0.26198   1.00
H1       0.88050    0.83273    0.31717   1.00
H1       0.73030    0.58740    0.24515   1.00
C6       0.79892    0.80640    0.28670   1.00
C6       0.71642    0.68580    0.25982   1.00
H2       0.84778    0.85343    0.28803   1.00
H2       0.67549    0.63279    0.25981   1.00
H2       0.78059    0.81351    0.27219   1.00
H2       0.69209    0.71089    0.26728   1.00
C6       0.74804    0.80056    0.30376   1.00
C6       0.73692    0.71458    0.23773   1.00
H2       0.76030    0.78364    0.31786   1.00
H2       0.76995    0.69730    0.23113   1.00
C6       0.74319    0.86569    0.30862   1.00
C6       0.67795    0.69764    0.22232   1.00
H2       0.69730    0.75956    0.29952   1.00
H2       0.76859    0.76998    0.23882   1.00
C6       0.81047    0.92321    0.31789   1.00
C6       0.63686    0.62035    0.21738   1.00
C6       0.72503    0.89313    0.28950   1.00
C6       0.62864    0.72114    0.23028   1.00
C6       0.68580    0.84653    0.32452   1.00
C6       0.70975    0.73612    0.20219   1.00
H2       0.82529    0.90512    0.33124   1.00
H2       0.67041    0.60191    0.21203   1.00
H2       0.85226    0.94212    0.30704   1.00
H2       0.60963    0.59044    0.23064   1.00
H2       0.80504    0.96652    0.32252   1.00
H2       0.59901    0.60971    0.20559   1.00
H2       0.71698    0.93548    0.29332   1.00
H2       0.59063    0.71356    0.21883   1.00
H2       0.76601    0.91171    0.27835   1.00
H2       0.60134    0.69223    0.24369   1.00
H2       0.67859    0.85319    0.28243   1.00
H2       0.65649    0.77512    0.23427   1.00
H2       0.69651    0.82747    0.33844   1.00
H2       0.74456    0.72081    0.19580   1.00
H2       0.68073    0.89058    0.32851   1.00
H2       0.67050    0.72552    0.19086   1.00
H2       0.63663    0.80702    0.31869   1.00
H2       0.73834    0.79116    0.20460   1.00
C4       0.81603    0.12378    0.29840   1.00
C4       0.79559    0.15278    0.28255   1.00
C3       0.76865    0.07534    0.31241   1.00
C3       0.72580    0.13017    0.27827   1.00
C3       0.88634    0.14346    0.30058   1.00
C3       0.84619    0.20641    0.27033   1.00
C2       0.85682    0.06259    0.32985   1.00
C2       0.75427    0.21364    0.25114   1.00
C3       0.78824    0.04535    0.32760   1.00
C3       0.70565    0.15981    0.26312   1.00
C3       0.90413    0.11144    0.31618   1.00
C3       0.82355    0.23549    0.25513   1.00
H1       0.71822    0.06053    0.31223   1.00
H1       0.68696    0.09085    0.28586   1.00
C5       0.93679    0.19411    0.28747   1.00
C5       0.91716    0.22938    0.27336   1.00
H1       0.75156    0.01054    0.33718   1.00
H1       0.65450    0.14137    0.26084   1.00
H1       0.95354    0.12375    0.31812   1.00
H1       0.85801    0.27403    0.24624   1.00
C6       1.00981    0.20910    0.28854   1.00
C6       0.97034    0.29091    0.26182   1.00
H2       1.00995    0.16115    0.28958   1.00
H2       0.95620    0.33038    0.26194   1.00
H2       1.03662    0.22966    0.27432   1.00
H2       1.01886    0.31603    0.26978   1.00
C6       1.05160    0.25896    0.30619   1.00
C6       0.98222    0.27359    0.23971   1.00
H2       1.02073    0.24421    0.32000   1.00
H2       0.93308    0.23983    0.23254   1.00
C6       1.12225    0.26623    0.31161   1.00
C6       1.02428    0.33468    0.22493   1.00
H2       1.05977    0.30941    0.30230   1.00
H2       1.00772    0.24357    0.24080   1.00
C6       1.11421    0.19908    0.32044   1.00
C6       0.98606    0.37377    0.21995   1.00
C6       1.17018    0.28798    0.29294   1.00
C6       1.09552    0.38518    0.23371   1.00
C6       1.15693    0.32227    0.32809   1.00
C6       1.03480    0.30604    0.20470   1.00
H2       1.07974    0.18174    0.33345   1.00
H2       0.93509    0.33930    0.21403   1.00
H2       1.09393    0.15841    0.30919   1.00
H2       0.98062    0.39885    0.23333   1.00
H2       1.16319    0.20601    0.32546   1.00
H2       1.01353    0.41320    0.20858   1.00
H2       1.22084    0.29763    0.29719   1.00
H2       1.12620    0.42485    0.22271   1.00
H2       1.15040    0.24815    0.28141   1.00
H2       1.09114    0.41036    0.24725   1.00
H2       1.17557    0.33439    0.28618   1.00
H2       1.12296    0.35868    0.23775   1.00
H2       1.12542    0.30902    0.34172   1.00
H2       0.98590    0.27053    0.19775   1.00
H2       1.20639    0.32893    0.33249   1.00
H2       1.06360    0.34684    0.19381   1.00
H2       1.16528    0.37134    0.32261   1.00
H2       1.06278    0.27899    0.20716   1.00
C4       0.81335    0.68172    0.80159   1.00
C4       0.79209    0.62905    0.78671   1.00
C3       0.77346    0.71224    0.80668   1.00
C3       0.72648    0.59830    0.77746   1.00
C3       0.87684    0.70549    0.81190   1.00
C3       0.83748    0.60552    0.78070   1.00
C2       0.85470    0.78590    0.83237   1.00
C2       0.75027    0.52488    0.75591   1.00
C3       0.79322    0.76250    0.82166   1.00
C3       0.70621    0.54804    0.76245   1.00
C3       0.89494    0.75649    0.82714   1.00
C3       0.81502    0.55451    0.76529   1.00
H1       0.72887    0.69958    0.79954   1.00
H1       0.69069    0.61078    0.78142   1.00
C5       0.92054    0.67875    0.80683   1.00
C5       0.90311    0.63251    0.79009   1.00
H1       0.76205    0.78227    0.82468   1.00
H1       0.65830    0.52808    0.75631   1.00
H1       0.93945    0.77436    0.83490   1.00
H1       0.84603    0.53682    0.76051   1.00
C6       0.98396    0.69902    0.81933   1.00
C6       0.95333    0.61250    0.78209   1.00
H2       0.97153    0.69765    0.83535   1.00
H2       0.95316    0.61384    0.76556   1.00
H2       0.99946    0.66073    0.81860   1.00
H2       1.00567    0.65094    0.78549   1.00
C6       1.04581    0.76986    0.81309   1.00
C6       0.93981    0.54176    0.79023   1.00
H2       1.02836    0.80655    0.81090   1.00
H2       0.88521    0.50492    0.78957   1.00
C6       1.10876    0.80294    0.82768   1.00
C6       0.97835    0.50892    0.77965   1.00
H2       1.06325    0.76402    0.79816   1.00
H2       0.95270    0.54768    0.80635   1.00
C6       1.09082    0.82311    0.84830   1.00
C6       0.95464    0.48866    0.75739   1.00
C6       1.13780    0.75482    0.83151   1.00
C6       1.05661    0.55728    0.78006   1.00
C6       1.16569    0.86910    0.81766   1.00
C6       0.96213    0.44285    0.79128   1.00
H2       1.06913    0.85622    0.84610   1.00
H2       0.89940    0.45537    0.75655   1.00
H2       1.05401    0.77845    0.85676   1.00
H2       0.96829    0.53326    0.74801   1.00
H2       1.13604    0.85034    0.85782   1.00
H2       0.97826    0.46158    0.75059   1.00
H2       1.18448    0.78015    0.84051   1.00
H2       1.08319    0.53211    0.77396   1.00
H2       1.10139    0.70941    0.83980   1.00
H2       1.07128    0.60264    0.77091   1.00
H2       1.14953    0.73870    0.81721   1.00
H2       1.07446    0.57346    0.79553   1.00
H2       1.14800    0.90523    0.81482   1.00
H2       0.90741    0.40656    0.79126   1.00
H2       1.21069    0.89436    0.82736   1.00
H2       0.98760    0.41774    0.78436   1.00
H2       1.18157    0.85802    0.80320   1.00
H2       0.97896    0.45400    0.80703   1.00
C4       0.30856    0.12312    0.79861   1.00
C4       0.36028    0.15022    0.78335   1.00
C3       0.24676    0.12490    0.79683   1.00
C3       0.35086    0.17442    0.76436   1.00
C3       0.31818    0.09298    0.81645   1.00
C3       0.42416    0.15355    0.78695   1.00
C2       0.20247    0.06533    0.82899   1.00
C2       0.46605    0.20812    0.75287   1.00
C3       0.19512    0.09663    0.81149   1.00
C3       0.40216    0.20282    0.74960   1.00
C3       0.26418    0.06442    0.83096   1.00
C3       0.47521    0.18318    0.77157   1.00
H1       0.23723    0.14742    0.78492   1.00
H1       0.30613    0.17169    0.76045   1.00
C5       0.38052    0.09224    0.81949   1.00
C5       0.43561    0.12737    0.80543   1.00
H1       0.15163    0.09932    0.80927   1.00
H1       0.39226    0.21960    0.73625   1.00
H1       0.26893    0.04213    0.84377   1.00
H1       0.52144    0.18687    0.77363   1.00
C6       0.38708    0.05383    0.83734   1.00
C6       0.50576    0.13780    0.80995   1.00
H2       0.34032    0.00477    0.83873   1.00
H2       0.54402    0.18996    0.80608   1.00
H2       0.42458    0.03821    0.83449   1.00
H2       0.51406    0.13671    0.82615   1.00
C6       0.40544    0.09519    0.85767   1.00
C6       0.52003    0.08454    0.79913   1.00
H2       0.37435    0.11947    0.85921   1.00
H2       0.50249    0.07800    0.78341   1.00
C6       0.39868    0.05562    0.87780   1.00
C6       0.59530    0.09911    0.79898   1.00
H2       0.45793    0.13718    0.85644   1.00
H2       0.48800    0.03508    0.80634   1.00
C6       0.32336    0.00189    0.88242   1.00
C6       0.64250    0.16310    0.78617   1.00
C6       0.44190    0.02000    0.87717   1.00
C6       0.62451    0.10831    0.82073   1.00
C6       0.42514    0.10745    0.89561   1.00
C6       0.59631    0.03726    0.78918   1.00
H2       0.29127    0.02526    0.88264   1.00
H2       0.62266    0.15868    0.77080   1.00
H2       0.30272    -0.03859   0.87111   1.00
H2       0.64750    0.20928    0.79291   1.00
H2       0.31864    -0.02206   0.89715   1.00
H2       0.69368    0.17010    0.78499   1.00
H2       0.44073    -0.00330   0.89177   1.00
H2       0.67512    0.11357    0.82055   1.00
H2       0.42244    -0.02031   0.86579   1.00
H2       0.62928    0.15398    0.82783   1.00
H2       0.49493    0.05648    0.87353   1.00
H2       0.59144    0.06455    0.83019   1.00
H2       0.39578    0.13359    0.89686   1.00
H2       0.57680    0.02895    0.77368   1.00
H2       0.42103    0.08212    0.91006   1.00
H2       0.64799    0.04524    0.78860   1.00
H2       0.47859    0.14600    0.89344   1.00
H2       0.56494    -0.00935   0.79779   1.00
C4       0.87639    0.18430    0.79844   1.00
C4       0.84946    0.20881    0.78310   1.00
C3       0.86653    0.11703    0.79813   1.00
C3       0.81709    0.17047    0.76531   1.00
C3       0.91468    0.22798    0.81487   1.00
C3       0.85475    0.27409    0.78536   1.00
C2       0.93364    0.13577    0.82893   1.00
C2       0.79202    0.25686    0.75253   1.00
C3       0.89451    0.09350    0.81283   1.00
C3       0.78890    0.19350    0.75052   1.00
C3       0.94263    0.20219    0.82947   1.00
C3       0.82505    0.29551    0.77001   1.00
H1       0.83807    0.08238    0.78731   1.00
H1       0.81337    0.12468    0.76233   1.00
C5       0.92389    0.29525    0.81647   1.00
C5       0.88930    0.31625    0.80253   1.00
H1       0.88577    0.04453    0.81170   1.00
H1       0.76599    0.16331    0.73808   1.00
H1       0.97054    0.23189    0.84129   1.00
H1       0.82737    0.34140    0.77115   1.00
C6       0.97050    0.34338    0.83267   1.00
C6       0.88818    0.38185    0.80583   1.00
H2       1.01683    0.34005    0.83331   1.00
H2       0.83680    0.37257    0.80302   1.00
H2       0.99055    0.39642    0.82843   1.00
H2       0.89528    0.39671    0.82171   1.00
C6       0.93549    0.33080    0.85398   1.00
C6       0.94253    0.44280    0.79281   1.00
H2       0.90671    0.27607    0.85708   1.00
H2       0.94247    0.42542    0.77734   1.00
C6       0.98242    0.36671    0.87271   1.00
C6       0.93623    0.50847    0.79150   1.00
H2       0.89732    0.34676    0.85310   1.00
H2       0.99284    0.45719    0.79889   1.00
C6       1.03122    0.33867    0.87702   1.00
C6       0.87076    0.49482    0.78004   1.00
C6       1.02485    0.44502    0.86981   1.00
C6       0.93675    0.53756    0.81281   1.00
C6       0.93661    0.35216    0.89170   1.00
C6       0.99833    0.56375    0.77949   1.00
H2       1.00287    0.28331    0.87881   1.00
H2       0.86831    0.47318    0.76504   1.00
H2       1.06779    0.35088    0.86477   1.00
H2       0.82492    0.45943    0.78831   1.00
H2       1.06032    0.36055    0.89090   1.00
H2       0.86921    0.54184    0.77797   1.00
H2       1.05366    0.46998    0.88351   1.00
H2       0.93726    0.58591    0.81169   1.00
H2       1.06137    0.45828    0.85747   1.00
H2       0.89152    0.50252    0.82142   1.00
H2       0.99179    0.46588    0.86633   1.00
H2       0.98164    0.54629    0.82137   1.00
H2       0.90601    0.29744    0.89456   1.00
H2       0.99995    0.54601    0.76421   1.00
H2       0.96716    0.37587    0.90524   1.00
H2       0.99599    0.61057    0.77805   1.00
H2       0.90188    0.37202    0.88975   1.00
H2       1.04615    0.57663    0.78706   1.00
C4       0.01589    0.48552    0.36518   1.00
C4       -0.03555   0.46567    0.38040   1.00
C3       0.01601    0.43842    0.35087   1.00
C3       -0.09416   0.39923    0.38105   1.00
C3       0.06971    0.55491    0.36401   1.00
C3       -0.02901   0.51347    0.39565   1.00
C2       0.11800    0.52627    0.33377   1.00
C2       -0.13792   0.42441    0.41174   1.00
C3       0.06525    0.45811    0.33557   1.00
C3       -0.14367   0.37899    0.39628   1.00
C3       0.11865    0.57295    0.34814   1.00
C3       -0.08037   0.49072    0.41097   1.00
H1       -0.01928   0.38789    0.35116   1.00
H1       -0.10342   0.36324    0.37036   1.00
C5       0.07391    0.60406    0.37852   1.00
C5       0.02740    0.58197    0.39530   1.00
H1       0.06235    0.42173    0.32567   1.00
H1       -0.18461   0.33026    0.39594   1.00
H1       0.15741    0.62187    0.34673   1.00
H1       -0.07726   0.52308    0.42215   1.00
C6       0.12677    0.67859    0.37582   1.00
C6       0.03753    0.62975    0.41271   1.00
H2       0.12813    0.69242    0.35992   1.00
H2       0.02919    0.60236    0.42698   1.00
H2       0.11136    0.71175    0.38315   1.00
H2       0.09055    0.66959    0.41416   1.00
C6       0.19922    0.69681    0.38374   1.00
C6       -0.00812   0.66354    0.41104   1.00
H2       0.21102    0.65777    0.37881   1.00
H2       -0.05986   0.62504    0.40665   1.00
C6       0.26075    0.76801    0.37774   1.00
C6       -0.01339   0.70157    0.43018   1.00
H2       0.19674    0.69334    0.40028   1.00
H2       0.01117    0.69965    0.39843   1.00
C6       0.27478    0.77316    0.35459   1.00
C6       -0.05051   0.65159    0.44794   1.00
C6       0.24908    0.82701    0.38438   1.00
C6       0.05777    0.75805    0.43743   1.00
C6       0.32566    0.77743    0.38867   1.00
C6       -0.05573   0.73595    0.42452   1.00
H2       0.28215    0.73152    0.34936   1.00
H2       -0.10052   0.61043    0.44321   1.00
H2       0.23276    0.77116    0.34599   1.00
H2       -0.02133   0.62866    0.45354   1.00
H2       0.32056    0.82106    0.35075   1.00
H2       -0.05813   0.67778    0.46070   1.00
H2       0.29419    0.87648    0.38143   1.00
H2       0.05326    0.78742    0.44986   1.00
H2       0.20671    0.82551    0.37608   1.00
H2       0.08807    0.73614    0.44292   1.00
H2       0.23767    0.82374    0.40055   1.00
H2       0.08557    0.79314    0.42509   1.00
H2       0.33664    0.73736    0.38433   1.00
H2       -0.10685   0.69810    0.41949   1.00
H2       0.37023    0.82636    0.38484   1.00
H2       -0.06124   0.76286    0.43747   1.00
H2       0.31943    0.77567    0.40511   1.00
H2       -0.03137   0.77292    0.41231   1.00
C4       0.46945    0.98423    0.36515   1.00
C4       0.50106    1.03574    0.38035   1.00
C3       0.42039    0.98267    0.35130   1.00
C3       0.49128    1.09313    0.38139   1.00
C3       0.48688    0.93181    0.36354   1.00
C3       0.54435    1.03055    0.39517   1.00
C2       0.40797    0.88202    0.33377   1.00
C2       0.56227    1.13820    0.41167   1.00
C3       0.39077    0.93339    0.33601   1.00
C3       0.52061    1.14268    0.39662   1.00
C3       0.45584    0.88278    0.34769   1.00
C3       0.57296    1.08189    0.41049   1.00
H1       0.40382    1.01689    0.35193   1.00
H1       0.46302    1.10144    0.37101   1.00
C5       0.53380    0.92904    0.37759   1.00
C5       0.55841    0.97547    0.39438   1.00
H1       0.35592    0.93523    0.32645   1.00
H1       0.51136    1.18269    0.39658   1.00
H1       0.46730    0.84500    0.34597   1.00
H1       0.60362    1.07971    0.42137   1.00
C6       0.55728    0.87777    0.37439   1.00
C6       0.59831    0.96661    0.41138   1.00
H2       0.56874    0.87693    0.35837   1.00
H2       0.57982    0.97412    0.42586   1.00
H2       0.60667    0.89445    0.38134   1.00
H2       0.58675    0.91404    0.41265   1.00
C6       0.50516    0.80472    0.38242   1.00
C6       0.67739    1.01408    0.40920   1.00
H2       0.45353    0.79151    0.37791   1.00
H2       0.68883    1.06542    0.40497   1.00
C6       0.51648    0.74455    0.37599   1.00
C6       0.72268    1.02055    0.42795   1.00
H2       0.50536    0.80703    0.39898   1.00
H2       0.69410    0.99573    0.39633   1.00
C6       0.50611    0.73061    0.35285   1.00
C6       0.70981    1.05653    0.44603   1.00
C6       0.58839    0.75828    0.38201   1.00
C6       0.71061    0.95004    0.43495   1.00
C6       0.46307    0.67886    0.38708   1.00
C6       0.79878    1.06470    0.42180   1.00
H2       0.45618    0.72182    0.34805   1.00
H2       0.71683    1.10603    0.44150   1.00
H2       0.54473    0.77329    0.34412   1.00
H2       0.65827    1.02611    0.45196   1.00
H2       0.50942    0.68568    0.34874   1.00
H2       0.74489    1.06503    0.45850   1.00
H2       0.59401    0.71407    0.37878   1.00
H2       0.74584    0.95549    0.44707   1.00
H2       0.62787    0.80131    0.37356   1.00
H2       0.65900    0.91852    0.44076   1.00
H2       0.59754    0.76966    0.39817   1.00
H2       0.71795    0.92301    0.42238   1.00
H2       0.41125    0.66645    0.38317   1.00
H2       0.81022    1.11543    0.41692   1.00
H2       0.46863    0.63519    0.38297   1.00
H2       0.83253    1.07108    0.43446   1.00
H2       0.46869    0.68503    0.40351   1.00
H2       0.81141    1.04122    0.40934   1.00
C4       0.51478    0.53054    0.36515   1.00
C4       0.53468    0.49893    0.38035   1.00
C3       0.56227    0.57953    0.35128   1.00
C3       0.60182    0.50863    0.38138   1.00
C3       0.44494    0.51319    0.36356   1.00
C3       0.48622    0.45573    0.39519   1.00
C2       0.47405    0.59201    0.33377   1.00
C2       0.57593    0.43773    0.41167   1.00
C3       0.54260    0.60914    0.33599   1.00
C3       0.62203    0.47930    0.39660   1.00
C3       0.42694    0.54422    0.34771   1.00
C3       0.50896    0.42712    0.41051   1.00
H1       0.61305    0.59604    0.35189   1.00
H1       0.63836    0.53683    0.37099   1.00
C5       0.39528    0.46636    0.37763   1.00
C5       0.41710    0.44175    0.39442   1.00
H1       0.57928    0.64394    0.32642   1.00
H1       0.67127    0.48849    0.39656   1.00
H1       0.37773    0.53282    0.34600   1.00
H1       0.47613    0.39651    0.42140   1.00
C6       0.32053    0.44295    0.37445   1.00
C6       0.36839    0.40195    0.41143   1.00
H2       0.30816    0.43145    0.35844   1.00
H2       0.39444    0.42046    0.42591   1.00
H2       0.28779    0.39359    0.38142   1.00
H2       0.32742    0.41358    0.41272   1.00
C6       0.29972    0.49516    0.38248   1.00
C6       0.33669    0.32286    0.40928   1.00
H2       0.33817    0.54676    0.37795   1.00
H2       0.37652    0.31133    0.40505   1.00
C6       0.22825    0.48392    0.37606   1.00
C6       0.29790    0.27765    0.42805   1.00
H2       0.30189    0.49502    0.39903   1.00
H2       0.30158    0.30614    0.39642   1.00
C6       0.22461    0.49422    0.35293   1.00
C6       0.34679    0.29051    0.44612   1.00
C6       0.17002    0.41206    0.38212   1.00
C6       0.23954    0.28983    0.43505   1.00
C6       0.21609    0.53742    0.38715   1.00
C6       0.26584    0.20152    0.42191   1.00
H2       0.26577    0.54411    0.34811   1.00
H2       0.38922    0.28342    0.44157   1.00
H2       0.22857    0.45554    0.34420   1.00
H2       0.36799    0.34208    0.45203   1.00
H2       0.17638    0.49096    0.34883   1.00
H2       0.32023    0.25549    0.45860   1.00
H2       0.12020    0.40649    0.37890   1.00
H2       0.20978    0.25466    0.44719   1.00
H2       0.17349    0.37252    0.37367   1.00
H2       0.25971    0.34147    0.44085   1.00
H2       0.17230    0.40295    0.39827   1.00
H2       0.20515    0.28250    0.42250   1.00
H2       0.25552    0.58920    0.38323   1.00
H2       0.30507    0.19000    0.41703   1.00
H2       0.16687    0.53191    0.38305   1.00
H2       0.23849    0.16783    0.43459   1.00
H2       0.21669    0.53185    0.40358   1.00
H2       0.22970    0.18889    0.40946   1.00
C4       0.17874    0.31623    0.19883   1.00
C4       0.20206    0.36944    0.21360   1.00
C3       0.11198    0.25806    0.19940   1.00
C3       0.15816    0.37180    0.22866   1.00
C3       0.22322    0.32044    0.18280   1.00
C3       0.27178    0.42280    0.21351   1.00
C2       0.13036    0.21023    0.16842   1.00
C2       0.24994    0.47518    0.24408   1.00
C3       0.08829    0.20679    0.18462   1.00
C3       0.18132    0.42280    0.24351   1.00
C3       0.19700    0.26734    0.16799   1.00
C3       0.29342    0.47360    0.22896   1.00
H1       0.07828    0.25043    0.21068   1.00
H1       0.10755    0.33692    0.22928   1.00
C5       0.29193    0.37633    0.18191   1.00
C5       0.31773    0.42474    0.19820   1.00
H1       0.03951    0.16628    0.18584   1.00
H1       0.14715    0.42148    0.25400   1.00
H1       0.22693    0.26877    0.15628   1.00
H1       0.34270    0.51210    0.22948   1.00
C6       0.33600    0.38392    0.16372   1.00
C6       0.39285    0.47724    0.19957   1.00
H2       0.30590    0.37427    0.14995   1.00
H2       0.40974    0.48023    0.21520   1.00
H2       0.37589    0.43657    0.16151   1.00
H2       0.42411    0.46047    0.19173   1.00
C6       0.36932    0.33775    0.16491   1.00
C6       0.41022    0.54897    0.19121   1.00
H2       0.33137    0.28671    0.17003   1.00
H2       0.37260    0.56191    0.19676   1.00
C6       0.40320    0.32977    0.14518   1.00
C6       0.48279    0.61062    0.19591   1.00
H2       0.40788    0.35811    0.17686   1.00
H2       0.40347    0.54465    0.17477   1.00
C6       0.34964    0.29107    0.12835   1.00
C6       0.49266    0.62730    0.21891   1.00
C6       0.45865    0.39980    0.13687   1.00
C6       0.53988    0.59735    0.18833   1.00
C6       0.43793    0.28738    0.15035   1.00
C6       0.49075    0.67455    0.18472   1.00
H2       0.30914    0.24184    0.13385   1.00
H2       0.45247    0.63584    0.22480   1.00
H2       0.32613    0.32009    0.12309   1.00
H2       0.49188    0.58603    0.22760   1.00
H2       0.37301    0.28162    0.11520   1.00
H2       0.54149    0.67315    0.22186   1.00
H2       0.48528    0.39347    0.12399   1.00
H2       0.59008    0.64242    0.19036   1.00
H2       0.43619    0.42994    0.13170   1.00
H2       0.53953    0.55570    0.19672   1.00
H2       0.49625    0.42870    0.14856   1.00
H2       0.53329    0.58408    0.17226   1.00
H2       0.40076    0.23703    0.15610   1.00
H2       0.45198    0.68661    0.18969   1.00
H2       0.46200    0.28001    0.13698   1.00
H2       0.54059    0.71918    0.18765   1.00
H2       0.47732    0.31278    0.16188   1.00
H2       0.48567    0.66644    0.16834   1.00
C4       0.69132    0.87695    0.20136   1.00
C4       0.64195    0.84849    0.21724   1.00
C3       0.68503    0.91449    0.18497   1.00
C3       0.58681    0.86157    0.21902   1.00
C3       0.74948    0.86795    0.20160   1.00
C3       0.64718    0.80525    0.23208   1.00
C2       0.79282    0.93739    0.16975   1.00
C2       0.54017    0.78828    0.24879   1.00
C3       0.73432    0.94412    0.16969   1.00
C3       0.53723    0.83218    0.23423   1.00
C3       0.79870    0.89927    0.18581   1.00
C3       0.59542    0.77603    0.24726   1.00
H1       0.64405    0.92113    0.18342   1.00
H1       0.58099    0.89349    0.20944   1.00
C5       0.75717    0.82825    0.21723   1.00
C5       0.70315    0.79250    0.23158   1.00
H1       0.72693    0.97080    0.15834   1.00
H1       0.49858    0.84344    0.23463   1.00
H1       0.84097    0.89440    0.18554   1.00
H1       0.59712    0.74466    0.25799   1.00
C6       0.82236    0.82523    0.21852   1.00
C6       0.70412    0.74101    0.24603   1.00
H2       0.86573    0.87625    0.21623   1.00
H2       0.65342    0.69604    0.24658   1.00
H2       0.83158    0.81387    0.23383   1.00
H2       0.73440    0.71982    0.24012   1.00
C6       0.82394    0.77236    0.20351   1.00
C6       0.73068    0.77069    0.26774   1.00
H2       0.80511    0.77691    0.18865   1.00
H2       0.70757    0.80071    0.27261   1.00
C6       0.89390    0.77543    0.20023   1.00
C6       0.71981    0.71893    0.28507   1.00
H2       0.78705    0.72135    0.20890   1.00
H2       0.78522    0.80715    0.26654   1.00
C6       0.94635    0.84237    0.18952   1.00
C6       0.64311    0.67197    0.29001   1.00
C6       0.92440    0.76848    0.22052   1.00
C6       0.75179    0.67440    0.27963   1.00
C6       0.88217    0.71510    0.18635   1.00
C6       0.75524    0.75974    0.30458   1.00
H2       0.92590    0.84934    0.17528   1.00
H2       0.61876    0.70191    0.29359   1.00
H2       0.96019    0.88677    0.19901   1.00
H2       0.61578    0.63868    0.27731   1.00
H2       0.99326    0.84196    0.18604   1.00
H2       0.63628    0.63936    0.30302   1.00
H2       0.97060    0.76578    0.21793   1.00
H2       0.74824    0.64196    0.29236   1.00
H2       0.93799    0.81218    0.23034   1.00
H2       0.72553    0.64113    0.26680   1.00
H2       0.88791    0.72245    0.22858   1.00
H2       0.80549    0.70625    0.27567   1.00
H2       0.86128    0.71798    0.17170   1.00
H2       0.73398    0.79159    0.30921   1.00
H2       0.92977    0.71531    0.18350   1.00
H2       0.74867    0.72571    0.31719   1.00
H2       0.84657    0.66623    0.19328   1.00
H2       0.80989    0.79291    0.30217   1.00
C4       0.12379    0.81605    0.20160   1.00
C4       0.15279    0.79562    0.21745   1.00
C3       0.07523    0.76864    0.18762   1.00
C3       0.13008    0.72582    0.22177   1.00
C3       0.14359    0.88638    0.19939   1.00
C3       0.20654    0.84622    0.22964   1.00
C2       0.06259    0.85683    0.17015   1.00
C2       0.21366    0.75430    0.24886   1.00
C3       0.04524    0.78823    0.17243   1.00
C3       0.15973    0.70567    0.23691   1.00
C3       0.11156    0.90418    0.18379   1.00
C3       0.23562    0.82358    0.24484   1.00
H1       0.06033    0.71819    0.18783   1.00
H1       0.09068    0.68699    0.21420   1.00
C5       0.19436    0.93685    0.21247   1.00
C5       0.22963    0.91720    0.22658   1.00
H1       0.01034    0.75153    0.16288   1.00
H1       0.14120    0.65452    0.23921   1.00
H1       0.12396    0.95360    0.18184   1.00
H1       0.27424    0.85805    0.25371   1.00
C6       0.20949    1.00991    0.21137   1.00
C6       0.29126    0.97037    0.23808   1.00
H2       0.16158    1.01015    0.21034   1.00
H2       0.33066    0.95614    0.23796   1.00
H2       0.23015    1.03679    0.22558   1.00
H2       0.31642    1.01884    0.23009   1.00
C6       0.25929    1.05154    0.19369   1.00
C6       0.27410    0.98243    0.26019   1.00
H2       0.24442    1.02059    0.17990   1.00
H2       0.24031    0.93334    0.26738   1.00
C6       0.26667    1.12222    0.18824   1.00
C6       0.33528    1.02448    0.27493   1.00
H2       0.30972    1.05964    0.19756   1.00
H2       0.24416    1.00801    0.25910   1.00
C6       0.19954    1.11426    0.17944   1.00
C6       0.37428    0.98617    0.27992   1.00
C6       0.28860    1.17025    0.20689   1.00
C6       0.38584    1.09564    0.26612   1.00
C6       0.32264    1.15672    0.17173   1.00
C6       0.30681    1.03519    0.29517   1.00
H2       0.18208    1.07972    0.16644   1.00
H2       0.33977    0.93525    0.28587   1.00
H2       0.15892    1.09412    0.19070   1.00
H2       0.39925    0.98059    0.26654   1.00
H2       0.20653    1.16326    0.17439   1.00
H2       0.41378    1.01364    0.29128   1.00
H2       0.29833    1.22093    0.20262   1.00
H2       0.42560    1.12633    0.27710   1.00
H2       0.24883    1.15060    0.21844   1.00
H2       0.41091    1.09112    0.25258   1.00
H2       0.33501    1.17560    0.21364   1.00
H2       0.35940    1.12314    0.26208   1.00
H2       0.30928    1.12513    0.15812   1.00
H2       0.27126    0.98635    0.30216   1.00
H2       0.32938    1.20619    0.16732   1.00
H2       0.34767    1.06400    0.30604   1.00
H2       0.37171    1.16500    0.17720   1.00
H2       0.27983    1.06325    0.29271   1.00
C4       0.98424    0.51482    0.63485   1.00
C4       1.03729    0.53887    0.62002   1.00
C3       0.93885    0.44406    0.63835   1.00
C3       1.05321    0.49416    0.60918   1.00
C3       0.97543    0.56265    0.64676   1.00
C3       1.07651    0.61020    0.61568   1.00
C2       0.87908    0.46612    0.66553   1.00
C2       1.14232    0.58705    0.58931   1.00
C3       0.88806    0.42032    0.65328   1.00
C3       1.10386    0.51735    0.59422   1.00
C3       0.92334    0.53638    0.66189   1.00
C3       1.12739    0.63169    0.60025   1.00
H1       0.94055    0.40711    0.63005   1.00
H1       1.02906    0.44315    0.61190   1.00
C5       1.01771    0.63450    0.64335   1.00
C5       1.06476    0.65798    0.62670   1.00
H1       0.85714    0.36865    0.65511   1.00
H1       1.11269    0.48248    0.58689   1.00
H1       0.91581    0.56878    0.67075   1.00
H1       1.15600    0.68193    0.59664   1.00
C6       1.01269    0.68454    0.65747   1.00
C6       1.10152    0.73231    0.62048   1.00
H2       1.01010    0.66751    0.67307   1.00
H2       1.10059    0.73555    0.60400   1.00
H2       1.05965    0.73351    0.65767   1.00
H2       1.07351    0.75757    0.62500   1.00
C6       0.95173    0.69622    0.65229   1.00
C6       1.17598    0.77351    0.62902   1.00
H2       0.90612    0.64722    0.64915   1.00
H2       1.20147    0.74368    0.62715   1.00
C6       0.93228    0.73459    0.66834   1.00
C6       1.22378    0.84621    0.62003   1.00
H2       0.96372    0.72445    0.63802   1.00
H2       1.17246    0.77847    0.64540   1.00
C6       0.90403    0.69242    0.68809   1.00
C6       1.24039    0.84281    0.59738   1.00
C6       0.99382    0.80543    0.67360   1.00
C6       1.19220    0.89281    0.62223   1.00
C6       0.87527    0.74573    0.65929   1.00
C6       1.29215    0.87961    0.63191   1.00
H2       0.86118    0.64166    0.68485   1.00
H2       1.26176    0.80937    0.59527   1.00
H2       0.94291    0.68622    0.69594   1.00
H2       1.19505    0.82366    0.58793   1.00
H2       0.88623    0.71737    0.69861   1.00
H2       1.27742    0.89319    0.59165   1.00
H2       0.97857    0.83371    0.68367   1.00
H2       1.22791    0.94469    0.61726   1.00
H2       1.03365    0.80033    0.68130   1.00
H2       1.14630    0.87410    0.61303   1.00
H2       1.01558    0.83565    0.65990   1.00
H2       1.17870    0.89494    0.63799   1.00
H2       0.83023    0.69710    0.65550   1.00
H2       1.31698    0.84901    0.63067   1.00
H2       0.85959    0.77202    0.67002   1.00
H2       1.32752    0.93045    0.62608   1.00
H2       0.89261    0.77643    0.64550   1.00
H2       1.28395    0.88471    0.64798   1.00
C4       0.53077    0.01565    0.63488   1.00
C4       0.50187    -0.03737   0.62003   1.00
C3       0.50383    0.05945    0.63887   1.00
C3       0.43997    -0.05492   0.60969   1.00
C3       0.58892    0.02606    0.64629   1.00
C3       0.53539    -0.07487   0.61518   1.00
C2       0.58712    0.12070    0.66559   1.00
C2       0.44512    -0.14231   0.58929   1.00
C3       0.53084    0.11018    0.65382   1.00
C3       0.41254    -0.10553   0.59471   1.00
C3       0.61465    0.07804    0.66145   1.00
C3       0.50598    -0.12577   0.59975   1.00
H1       0.46399    0.05658    0.63093   1.00
H1       0.41214    -0.03205   0.61279   1.00
C5       0.62004    -0.01454   0.64237   1.00
C5       0.59632    -0.06147   0.62569   1.00
H1       0.50891    0.13990    0.65602   1.00
H1       0.36789    -0.11557   0.58775   1.00
H1       0.65564    0.08667    0.66997   1.00
H1       0.52858    -0.15319   0.59578   1.00
C6       0.67688    -0.00792   0.65599   1.00
C6       0.63515    -0.09637   0.61891   1.00
H2       0.66335    -0.00593   0.67173   1.00
H2       0.63808    -0.09523   0.60240   1.00
H2       0.68045    -0.05403   0.65590   1.00
H2       0.68870    -0.06714   0.62307   1.00
C6       0.74828    0.05441    0.65045   1.00
C6       0.60444    -0.17072   0.62735   1.00
H2       0.74314    0.09918    0.64760   1.00
H2       0.54893    -0.19757   0.62586   1.00
C6       0.80762    0.07531    0.66605   1.00
C6       0.63055    -0.21688   0.61786   1.00
H2       0.76405    0.04323    0.63597   1.00
H2       0.61421    -0.16709   0.64366   1.00
C6       0.79411    0.10252    0.68609   1.00
C6       0.60900    -0.23372   0.59532   1.00
C6       0.81944    0.01505    0.67088   1.00
C6       0.70909    -0.18331   0.61949   1.00
C6       0.87429    0.13363    0.65667   1.00
C6       0.59816    -0.28532   0.62969   1.00
H2       0.78446    0.14443    0.68316   1.00
H2       0.55387    -0.25649   0.59361   1.00
H2       0.75020    0.06278    0.69414   1.00
H2       0.63340    -0.18822   0.58587   1.00
H2       0.83778    0.12134    0.69629   1.00
H2       0.62329    -0.26967   0.58925   1.00
H2       0.86394    0.03140    0.68062   1.00
H2       0.72625    -0.21789   0.61417   1.00
H2       0.77570    -0.02562   0.67878   1.00
H2       0.73451    -0.13723   0.61028   1.00
H2       0.82766    -0.00599   0.65698   1.00
H2       0.72576    -0.16963   0.63517   1.00
H2       0.86891    0.17784    0.65316   1.00
H2       0.54258    -0.31152   0.62884   1.00
H2       0.91724    0.15034    0.66708   1.00
H2       0.61454    -0.31957   0.62352   1.00
H2       0.88733    0.11709    0.64266   1.00
H2       0.61265    -0.27692   0.64567   1.00
C4       0.48488    0.46924    0.63488   1.00
C4       0.46077    0.49815    0.62003   1.00
C3       0.55562    0.49611    0.63885   1.00
C3       0.50513    0.55999    0.60967   1.00
C3       0.43714    0.41115    0.64631   1.00
C3       0.38973    0.46468    0.61520   1.00
C2       0.53359    0.41289    0.66559   1.00
C2       0.41258    0.55490    0.58929   1.00
C3       0.57935    0.46910    0.65380   1.00
C3       0.48195    0.58742    0.59469   1.00
C3       0.46338    0.38541    0.66147   1.00
C3       0.36824    0.49409    0.59977   1.00
H1       0.59259    0.53590    0.63089   1.00
H1       0.55585    0.58778    0.61275   1.00
C5       0.36541    0.38010    0.64241   1.00
C5       0.34219    0.40381    0.62573   1.00
H1       0.63100    0.49098    0.65598   1.00
H1       0.51658    0.63203    0.58772   1.00
H1       0.43102    0.34447    0.67001   1.00
H1       0.31822    0.47154    0.59582   1.00
C6       0.31520    0.32333    0.65605   1.00
C6       0.26842    0.36503    0.61897   1.00
H2       0.33078    0.33690    0.67179   1.00
H2       0.26659    0.36205    0.60247   1.00
H2       0.26555    0.31983    0.65598   1.00
H2       0.24407    0.31149    0.62316   1.00
C6       0.30601    0.25187    0.65053   1.00
C6       0.22489    0.39585    0.62742   1.00
H2       0.35589    0.25695    0.64767   1.00
H2       0.25360    0.45136    0.62592   1.00
C6       0.26757    0.19260    0.66615   1.00
C6       0.15260    0.36979    0.61796   1.00
H2       0.27901    0.23609    0.63605   1.00
H2       0.21881    0.38614    0.64374   1.00
C6       0.30835    0.20613    0.68617   1.00
C6       0.15726    0.39128    0.59541   1.00
C6       0.19555    0.18090    0.67100   1.00
C6       0.10756    0.29127    0.61961   1.00
C6       0.25911    0.12587    0.65679   1.00
C6       0.11667    0.40230    0.62979   1.00
H2       0.35988    0.21570    0.68323   1.00
H2       0.18967    0.44640    0.59369   1.00
H2       0.31262    0.25009    0.69422   1.00
H2       0.17827    0.36680    0.58596   1.00
H2       0.28351    0.16251    0.69639   1.00
H2       0.10701    0.37703    0.58936   1.00
H2       0.16738    0.13643    0.68075   1.00
H2       0.05582    0.27415    0.61430   1.00
H2       0.19871    0.22469    0.67889   1.00
H2       0.12814    0.26577    0.61040   1.00
H2       0.16625    0.17266    0.65711   1.00
H2       0.10461    0.27465    0.63529   1.00
H2       0.30865    0.13117    0.65326   1.00
H2       0.14611    0.45787    0.62892   1.00
H2       0.23287    0.08296    0.66721   1.00
H2       0.06603    0.38596    0.62363   1.00
H2       0.22947    0.11281    0.64279   1.00
H2       0.11061    0.38786    0.64577   1.00
C4       0.48882    0.02682    0.13153   1.00
C4       0.46579    -0.02314   0.11576   1.00
C3       0.55238    0.05034    0.14161   1.00
C3       0.50764    -0.04772   0.10753   1.00
C3       0.44731    0.05482    0.13766   1.00
C3       0.39852    -0.05004   0.10772   1.00
C2       0.53697    0.13028    0.16272   1.00
C2       0.41812    -0.12661   0.08458   1.00
C3       0.57599    0.10073    0.15666   1.00
C3       0.48455    -0.09811   0.09249   1.00
C3       0.47338    0.10630    0.15297   1.00
C3       0.37681    -0.10157   0.09249   1.00
H1       0.58361    0.03125    0.13853   1.00
H1       0.55672    -0.02944   0.11201   1.00
C5       0.38156    0.03109    0.12867   1.00
C5       0.35503    -0.02521   0.11480   1.00
H1       0.62241    0.11568    0.16329   1.00
H1       0.51714    -0.11386   0.08724   1.00
H1       0.44556    0.12776    0.15764   1.00
H1       0.32917    -0.12227   0.08650   1.00
C6       0.34143    0.06621    0.13374   1.00
C6       0.28163    -0.05919   0.10775   1.00
H2       0.37572    0.12122    0.13357   1.00
H2       0.25993    -0.11432   0.10813   1.00
H2       0.30582    0.05983    0.12173   1.00
H2       0.24947    -0.05212   0.11857   1.00
C6       0.30159    0.04161    0.15429   1.00
C6       0.27319    -0.03410   0.08635   1.00
H2       0.33453    0.03842    0.16584   1.00
H2       0.31223    -0.03163   0.07607   1.00
C6       0.27093    0.08450    0.16329   1.00
C6       0.20244    -0.07596   0.07557   1.00
H2       0.26008    -0.01072   0.15216   1.00
H2       0.28440    0.01853    0.08795   1.00
C6       0.32757    0.15669    0.16983   1.00
C6       0.18741    -0.14858   0.06977   1.00
C6       0.22255    0.09117    0.14804   1.00
C6       0.14361    -0.08156   0.08895   1.00
C6       0.22888    0.04760    0.18249   1.00
C6       0.20383    -0.03866   0.05566   1.00
H2       0.36326    0.15376    0.18036   1.00
H2       0.22859    -0.14643   0.06058   1.00
H2       0.35656    0.18706    0.15684   1.00
H2       0.18156    -0.17919   0.08316   1.00
H2       0.30589    0.18444    0.17736   1.00
H2       0.14032    -0.17564   0.06103   1.00
H2       0.19771    0.11690    0.15496   1.00
H2       0.09526    -0.10655   0.08075   1.00
H2       0.25054    0.12089    0.13481   1.00
H2       0.13736    -0.11149   0.10256   1.00
H2       0.18299    0.04105    0.14286   1.00
H2       0.15363    -0.03114   0.09361   1.00
H2       0.26091    0.04220    0.19387   1.00
H2       0.24414    -0.03398   0.04555   1.00
H2       0.20675    0.07590    0.18942   1.00
H2       0.15555    -0.06625   0.04750   1.00
H2       0.18714    -0.00327   0.17879   1.00
H2       0.21288    0.01254    0.05880   1.00
C4       0.98371    0.47015    0.13472   1.00
C4       1.03493    0.50164    0.11944   1.00
C3       0.98752    0.42854    0.15029   1.00
C3       1.09683    0.49967    0.11988   1.00
C3       0.92607    0.48000    0.13465   1.00
C3       1.02476    0.53676    0.10299   1.00
C2       0.88188    0.40916    0.16622   1.00
C2       1.13706    0.56243    0.08802   1.00
C3       0.93841    0.39920    0.16563   1.00
C3       1.14626    0.52880    0.10462   1.00
C3       0.87737    0.44954    0.15061   1.00
C3       1.07618    0.56542    0.08769   1.00
H1       1.02578    0.41742    0.15096   1.00
H1       1.10864    0.47759    0.13142   1.00
C5       0.91797    0.51901    0.11888   1.00
C5       0.96477    0.54292    0.10217   1.00
H1       0.94424    0.36994    0.17648   1.00
H1       1.18969    0.52540    0.10578   1.00
H1       0.83594    0.45578    0.15116   1.00
H1       1.07057    0.59038    0.07569   1.00
C6       0.86071    0.53507    0.12019   1.00
C6       0.95126    0.57380    0.08362   1.00
H2       0.85761    0.55021    0.13567   1.00
H2       0.96220    0.55346    0.07005   1.00
H2       0.87250    0.58093    0.11176   1.00
H2       0.89722    0.55596    0.08175   1.00
C6       0.79045    0.47510    0.11272   1.00
C6       0.99142    0.65373    0.08375   1.00
H2       0.78272    0.42691    0.11888   1.00
H2       1.04402    0.67216    0.08853   1.00
C6       0.72515    0.47969    0.11753   1.00
C6       0.99351    0.69106    0.06355   1.00
H2       0.79367    0.47080    0.09631   1.00
H2       0.96932    0.67056    0.09557   1.00
C6       0.71058    0.47499    0.14064   1.00
C6       1.03401    0.67856    0.04676   1.00
C6       0.73096    0.54628    0.10912   1.00
C6       0.92087    0.66880    0.05567   1.00
C6       0.66296    0.41859    0.10721   1.00
C6       1.03034    0.76898    0.06769   1.00
H2       0.70730    0.42903    0.14710   1.00
H2       1.08522    0.69274    0.05197   1.00
H2       0.75041    0.51877    0.14871   1.00
H2       1.00861    0.62522    0.04219   1.00
H2       0.66250    0.47347    0.14373   1.00
H2       1.03923    0.70852    0.03322   1.00
H2       0.68338    0.54674    0.11126   1.00
H2       0.92282    0.69860    0.04242   1.00
H2       0.77107    0.59081    0.11688   1.00
H2       0.89430    0.61528    0.05121   1.00
H2       0.74263    0.55155    0.09294   1.00
H2       0.89078    0.67574    0.06736   1.00
H2       0.65613    0.37016    0.11279   1.00
H2       1.08227    0.78751    0.07309   1.00
H2       0.61593    0.41930    0.11025   1.00
H2       1.03349    0.79737    0.05396   1.00
H2       0.66958    0.41983    0.09079   1.00
H2       1.00335    0.78125    0.07914   1.00
C4       0.53057    0.51482    0.13485   1.00
C4       0.49896    0.53473    0.11966   1.00
C3       0.57982    0.56237    0.14866   1.00
C3       0.50894    0.60197    0.11857   1.00
C3       0.51295    0.44492    0.13651   1.00
C3       0.45546    0.48618    0.10488   1.00
C2       0.59206    0.47409    0.16623   1.00
C2       0.43774    0.57598    0.08834   1.00
C3       0.60944    0.54270    0.16394   1.00
C3       0.47960    0.62218    0.10335   1.00
C3       0.54400    0.42694    0.15236   1.00
C3       0.42686    0.50892    0.08956   1.00
H1       0.59652    0.61318    0.14800   1.00
H1       0.53735    0.63860    0.12892   1.00
C5       0.46584    0.39519    0.12251   1.00
C5       0.44120    0.41698    0.10571   1.00
H1       0.64443    0.57942    0.17347   1.00
H1       0.48900    0.67150    0.10335   1.00
H1       0.53242    0.37768    0.15411   1.00
H1       0.39605    0.47602    0.07871   1.00
C6       0.44218    0.32042    0.12576   1.00
C6       0.40107    0.36812    0.08876   1.00
H2       0.43082    0.30828    0.14179   1.00
H2       0.41951    0.39398    0.07425   1.00
H2       0.39270    0.28775    0.11885   1.00
H2       0.41247    0.32700    0.08750   1.00
C6       0.49408    0.29922    0.11771   1.00
C6       0.32205    0.33675    0.09099   1.00
H2       0.54578    0.33757    0.12218   1.00
H2       0.31078    0.37678    0.09520   1.00
C6       0.48260    0.22771    0.12419   1.00
C6       0.27656    0.29785    0.07228   1.00
H2       0.49375    0.30119    0.10116   1.00
H2       0.30535    0.30180    0.10389   1.00
C6       0.49312    0.22430    0.14732   1.00
C6       0.28941    0.34657    0.05416   1.00
C6       0.41057    0.16961    0.11823   1.00
C6       0.28835    0.23921    0.06531   1.00
C6       0.53579    0.21514    0.11308   1.00
C6       0.20052    0.26615    0.07848   1.00
H2       0.54314    0.26538    0.15208   1.00
H2       0.28258    0.38919    0.05868   1.00
H2       0.45464    0.22856    0.15608   1.00
H2       0.34090    0.36751    0.04820   1.00
H2       0.48968    0.17602    0.15147   1.00
H2       0.25421    0.31997    0.04173   1.00
H2       0.40481    0.11974    0.12149   1.00
H2       0.25299    0.20940    0.05322   1.00
H2       0.37123    0.17337    0.12669   1.00
H2       0.33990    0.25912    0.05947   1.00
H2       0.40130    0.17174    0.10208   1.00
H2       0.28102    0.20493    0.07790   1.00
H2       0.58768    0.25447    0.11695   1.00
H2       0.18927    0.30558    0.08334   1.00
H2       0.53011    0.16588    0.11723   1.00
H2       0.16664    0.23874    0.06584   1.00
H2       0.53005    0.21556    0.09666   1.00
H2       0.18789    0.23013    0.09097   1.00
C4       0.69352    0.82159    0.70184   1.00
C4       0.64345    0.79837    0.71757   1.00
C3       0.72067    0.88730    0.69283   1.00
C3       0.62234    0.84164    0.72685   1.00
C3       0.71790    0.77808    0.69464   1.00
C3       0.61283    0.72943    0.72451   1.00
C2       0.79723    0.86990    0.67072   1.00
C2       0.53977    0.75056    0.74870   1.00
C3       0.77118    0.91096    0.67782   1.00
C3       0.57186    0.81850    0.74186   1.00
C3       0.76964    0.80425    0.67941   1.00
C3       0.56134    0.70776    0.73975   1.00
H1       0.70427    0.92018    0.69669   1.00
H1       0.64335    0.89178    0.72318   1.00
C5       0.69043    0.71033    0.70253   1.00
C5       0.63403    0.68426    0.71635   1.00
H1       0.78885    0.95897    0.67198   1.00
H1       0.55873    0.85218    0.74789   1.00
H1       0.78859    0.77502    0.67400   1.00
H1       0.53806    0.65900    0.74498   1.00
C6       0.72175    0.66757    0.69635   1.00
C6       0.59621    0.60964    0.72225   1.00
H2       0.77711    0.69922    0.69670   1.00
H2       0.54156    0.59100    0.72193   1.00
H2       0.71296    0.62917    0.70769   1.00
H2       0.60111    0.57797    0.71075   1.00
C6       0.69579    0.63181    0.67527   1.00
C6       0.61940    0.59548    0.74321   1.00
H2       0.69514    0.66801    0.66442   1.00
H2       0.62417    0.63370    0.75423   1.00
C6       0.73531    0.59900    0.66528   1.00
C6       0.57406    0.52346    0.75295   1.00
H2       0.64248    0.59214    0.67705   1.00
H2       0.67097    0.60383    0.74136   1.00
C6       0.80889    0.65374    0.65923   1.00
C6       0.50286    0.51174    0.75910   1.00
C6       0.73820    0.54602    0.67949   1.00
C6       0.56502    0.46561    0.73847   1.00
C6       0.69731    0.56155    0.64562   1.00
C6       0.60973    0.51887    0.77252   1.00
H2       0.80867    0.69257    0.64945   1.00
H2       0.50749    0.55238    0.76907   1.00
H2       0.83986    0.67928    0.67249   1.00
H2       0.47322    0.51013    0.74590   1.00
H2       0.83438    0.63091    0.65103   1.00
H2       0.47342    0.46347    0.76713   1.00
H2       0.76152    0.51996    0.67186   1.00
H2       0.53750    0.41601    0.74593   1.00
H2       0.76846    0.57052    0.69298   1.00
H2       0.53600    0.46357    0.72504   1.00
H2       0.68709    0.50767    0.68433   1.00
H2       0.61443    0.47342    0.73357   1.00
H2       0.69447    0.59692    0.63494   1.00
H2       0.61671    0.55828    0.78337   1.00
H2       0.72329    0.53811    0.63800   1.00
H2       0.57971    0.46952    0.77996   1.00
H2       0.64536    0.52126    0.64895   1.00
H2       0.65980    0.52537    0.76910   1.00
C4       0.12341    0.30814    0.70150   1.00
C4       0.15040    0.35969    0.71681   1.00
C3       0.13037    0.24904    0.70238   1.00
C3       0.17981    0.35236    0.73507   1.00
C3       0.08806    0.31518    0.68453   1.00
C3       0.14823    0.42120    0.71403   1.00
C2       0.06597    0.20224    0.67105   1.00
C2       0.20801    0.46528    0.74735   1.00
C3       0.10228    0.19748    0.68769   1.00
C3       0.20807    0.40360    0.74985   1.00
C3       0.05989    0.26134    0.66997   1.00
C3       0.17790    0.47229    0.72939   1.00
H1       0.15669    0.24155    0.71361   1.00
H1       0.18119    0.30923    0.73841   1.00
C5       0.08190    0.37490    0.68238   1.00
C5       0.11670    0.43032    0.69636   1.00
H1       0.10885    0.15599    0.68924   1.00
H1       0.22876    0.39530    0.76264   1.00
H1       0.03400    0.26427    0.65777   1.00
H1       0.17776    0.51691    0.72790   1.00
C6       0.03823    0.37836    0.66555   1.00
C6       0.12121    0.49841    0.69258   1.00
H2       -0.00919   0.32970    0.66465   1.00
H2       0.17297    0.53914    0.69577   1.00
H2       0.01972    0.41303    0.66927   1.00
H2       0.11633    0.50644    0.67656   1.00
C6       0.07570    0.39941    0.64456   1.00
C6       0.06708    0.50779    0.70480   1.00
H2       0.10292    0.37154    0.64204   1.00
H2       0.06469    0.49029    0.72040   1.00
C6       0.03141    0.39003    0.62530   1.00
C6       0.07639    0.58106    0.70566   1.00
H2       0.11533    0.45301    0.64555   1.00
H2       0.01699    0.47328    0.69832   1.00
C6       -0.01926   0.31367    0.62090   1.00
C6       0.14142    0.63120    0.71762   1.00
C6       -0.00866   0.42865    0.62735   1.00
C6       0.07948    0.61001    0.68415   1.00
C6       0.07958    0.41965    0.60670   1.00
C6       0.01419    0.57707    0.71688   1.00
H2       0.00735    0.28475    0.61969   1.00
H2       0.14132    0.61168    0.73278   1.00
H2       -0.05738   0.29059    0.63283   1.00
H2       0.18752    0.63969    0.70989   1.00
H2       -0.04651   0.30742    0.60669   1.00
H2       0.14494    0.68079    0.71934   1.00
H2       -0.03548   0.42585    0.61331   1.00
H2       0.08105    0.65893    0.68491   1.00
H2       -0.04668   0.40671    0.63937   1.00
H2       0.12499    0.61825    0.67608   1.00
H2       0.02570    0.48230    0.63088   1.00
H2       0.03493    0.57497    0.67527   1.00
H2       0.10865    0.39358    0.60444   1.00
H2       0.01008    0.55756    0.73227   1.00
H2       0.05091    0.41387    0.59281   1.00
H2       0.01857    0.62722    0.71799   1.00
H2       0.11576    0.47389    0.60872   1.00
H2       -0.03327   0.54343    0.70893   1.00
C4       0.18431    0.87639    0.70155   1.00
C4       0.20882    0.84947    0.71690   1.00
C3       0.11708    0.86663    0.70189   1.00
C3       0.17054    0.81719    0.73471   1.00
C3       0.22796    0.91458    0.68511   1.00
C3       0.27406    0.85465    0.71462   1.00
C2       0.13578    0.93365    0.67107   1.00
C2       0.25687    0.79202    0.74746   1.00
C3       0.09356    0.89462    0.68719   1.00
C3       0.19356    0.78901    0.74949   1.00
C3       0.20217    0.94254    0.67051   1.00
C3       0.29548    0.82495    0.72997   1.00
H1       0.08245    0.83825    0.71272   1.00
H1       0.12479    0.81355    0.73770   1.00
C5       0.29518    0.92369    0.68349   1.00
C5       0.31616    0.88910    0.69744   1.00
H1       0.04462    0.88595    0.68834   1.00
H1       0.16342    0.76617    0.76195   1.00
H1       0.23184    0.97039    0.65868   1.00
H1       0.34133    0.82720    0.72881   1.00
C6       0.34328    0.97021    0.66727   1.00
C6       0.38170    0.88786    0.69412   1.00
H2       0.34002    1.01658    0.66662   1.00
H2       0.37236    0.83647    0.69694   1.00
H2       0.39632    0.99020    0.67149   1.00
H2       0.39649    0.89489    0.67823   1.00
C6       0.33057    0.93511    0.64597   1.00
C6       0.44274    0.94221    0.70710   1.00
H2       0.27582    0.90639    0.64288   1.00
H2       0.42544    0.94223    0.72258   1.00
C6       0.36645    0.98195    0.62722   1.00
C6       0.50835    0.93581    0.70840   1.00
H2       0.34646    0.89689    0.64685   1.00
H2       0.45717    0.99251    0.70101   1.00
C6       0.33849    1.03081    0.62290   1.00
C6       0.49466    0.87035    0.71988   1.00
C6       0.44477    1.02431    0.63009   1.00
C6       0.53734    0.93620    0.68708   1.00
C6       0.35176    0.93606    0.60824   1.00
C6       0.56374    0.99791    0.72039   1.00
H2       0.28312    1.00252    0.62113   1.00
H2       0.47310    0.86799    0.73488   1.00
H2       0.35079    1.06744    0.63514   1.00
H2       0.45919    0.82450    0.71163   1.00
H2       0.36034    1.05986    0.60901   1.00
H2       0.54164    0.86873    0.72194   1.00
H2       0.46970    1.05305    0.61638   1.00
H2       0.58565    0.93664    0.68819   1.00
H2       0.45813    1.06087    0.64242   1.00
H2       0.50222    0.89097    0.67849   1.00
H2       0.46558    0.99120    0.63357   1.00
H2       0.54609    0.98109    0.67851   1.00
H2       0.29702    0.90551    0.60541   1.00
H2       0.54608    0.99962    0.73567   1.00
H2       0.37545    0.96654    0.59469   1.00
H2       0.61052    0.99550    0.72182   1.00
H2       0.37156    0.90128    0.61020   1.00
H2       0.57665    1.04573    0.71280   1.00
